
---------- Begin Simulation Statistics ----------
simSeconds                                   0.001390                       # Number of seconds simulated (Second)
simTicks                                   1389783000                       # Number of ticks simulated (Tick)
finalTick                                  1389783000                       # Number of ticks from beginning of simulation (restored from checkpoints and never reset) (Tick)
simFreq                                  1000000000000                       # The number of ticks per simulated second ((Tick/Second))
hostSeconds                                      8.12                       # Real time elapsed on the host (Second)
hostTickRate                                171257980                       # The number of ticks simulated per host second (ticks/s) ((Tick/Second))
hostMemory                                     644984                       # Number of bytes of host memory used (Byte)
simInsts                                       859855                       # Number of instructions simulated (Count)
simOps                                        1785306                       # Number of ops (including micro ops) simulated (Count)
hostInstRate                                   105955                       # Simulator instruction rate (inst/s) ((Count/Second))
hostOpRate                                     219993                       # Simulator op (including micro ops) rate (op/s) ((Count/Second))
system.clk_domain.clock                          1000                       # Clock period in ticks (Tick)
system.clk_domain.voltage_domain.voltage            1                       # Voltage in Volts (Volt)
system.cpu.numCycles                          1389784                       # Number of cpu cycles simulated (Cycle)
system.cpu.numWorkItemsStarted                      0                       # Number of work items this cpu started (Count)
system.cpu.numWorkItemsCompleted                    0                       # Number of work items this cpu completed (Count)
system.cpu.instsAdded                         4793413                       # Number of instructions added to the IQ (excludes non-spec) (Count)
system.cpu.nonSpecInstsAdded                        1                       # Number of non-speculative instructions added to the IQ (Count)
system.cpu.instsIssued                        3912572                       # Number of instructions issued (Count)
system.cpu.squashedInstsIssued                 172400                       # Number of squashed instructions issued (Count)
system.cpu.squashedInstsExamined              3008094                       # Number of squashed instructions iterated over during squash; mainly for profiling (Count)
system.cpu.squashedOperandsExamined           3711369                       # Number of squashed operands that are examined and possibly removed from graph (Count)
system.cpu.squashedNonSpecRemoved                   1                       # Number of squashed non-spec instructions that were removed (Count)
system.cpu.numIssuedDist::samples             1367446                       # Number of insts issued each cycle (Count)
system.cpu.numIssuedDist::mean               2.861226                       # Number of insts issued each cycle (Count)
system.cpu.numIssuedDist::stdev              2.935800                       # Number of insts issued each cycle (Count)
system.cpu.numIssuedDist::underflows                0      0.00%      0.00% # Number of insts issued each cycle (Count)
system.cpu.numIssuedDist::0                    617142     45.13%     45.13% # Number of insts issued each cycle (Count)
system.cpu.numIssuedDist::1                     33847      2.48%     47.61% # Number of insts issued each cycle (Count)
system.cpu.numIssuedDist::2                     94992      6.95%     54.55% # Number of insts issued each cycle (Count)
system.cpu.numIssuedDist::3                      1330      0.10%     54.65% # Number of insts issued each cycle (Count)
system.cpu.numIssuedDist::4                     79655      5.83%     60.48% # Number of insts issued each cycle (Count)
system.cpu.numIssuedDist::5                    110143      8.05%     68.53% # Number of insts issued each cycle (Count)
system.cpu.numIssuedDist::6                    197223     14.42%     82.95% # Number of insts issued each cycle (Count)
system.cpu.numIssuedDist::7                    232834     17.03%     99.98% # Number of insts issued each cycle (Count)
system.cpu.numIssuedDist::8                       280      0.02%    100.00% # Number of insts issued each cycle (Count)
system.cpu.numIssuedDist::overflows                 0      0.00%    100.00% # Number of insts issued each cycle (Count)
system.cpu.numIssuedDist::min_value                 0                       # Number of insts issued each cycle (Count)
system.cpu.numIssuedDist::max_value                 8                       # Number of insts issued each cycle (Count)
system.cpu.numIssuedDist::total               1367446                       # Number of insts issued each cycle (Count)
system.cpu.statFuBusy::No_OpClass                   0      0.00%      0.00% # attempts to use FU when none available (Count)
system.cpu.statFuBusy::IntAlu                  279827     99.97%     99.97% # attempts to use FU when none available (Count)
system.cpu.statFuBusy::IntMult                      0      0.00%     99.97% # attempts to use FU when none available (Count)
system.cpu.statFuBusy::IntDiv                       0      0.00%     99.97% # attempts to use FU when none available (Count)
system.cpu.statFuBusy::FloatAdd                     0      0.00%     99.97% # attempts to use FU when none available (Count)
system.cpu.statFuBusy::FloatCmp                     0      0.00%     99.97% # attempts to use FU when none available (Count)
system.cpu.statFuBusy::FloatCvt                     0      0.00%     99.97% # attempts to use FU when none available (Count)
system.cpu.statFuBusy::FloatMult                    0      0.00%     99.97% # attempts to use FU when none available (Count)
system.cpu.statFuBusy::FloatMultAcc                 0      0.00%     99.97% # attempts to use FU when none available (Count)
system.cpu.statFuBusy::FloatDiv                     0      0.00%     99.97% # attempts to use FU when none available (Count)
system.cpu.statFuBusy::FloatMisc                    0      0.00%     99.97% # attempts to use FU when none available (Count)
system.cpu.statFuBusy::FloatSqrt                    0      0.00%     99.97% # attempts to use FU when none available (Count)
system.cpu.statFuBusy::SimdAdd                      0      0.00%     99.97% # attempts to use FU when none available (Count)
system.cpu.statFuBusy::SimdAddAcc                   0      0.00%     99.97% # attempts to use FU when none available (Count)
system.cpu.statFuBusy::SimdAlu                     11      0.00%     99.98% # attempts to use FU when none available (Count)
system.cpu.statFuBusy::SimdCmp                      0      0.00%     99.98% # attempts to use FU when none available (Count)
system.cpu.statFuBusy::SimdCvt                      1      0.00%     99.98% # attempts to use FU when none available (Count)
system.cpu.statFuBusy::SimdMisc                     3      0.00%     99.98% # attempts to use FU when none available (Count)
system.cpu.statFuBusy::SimdMult                     0      0.00%     99.98% # attempts to use FU when none available (Count)
system.cpu.statFuBusy::SimdMultAcc                  0      0.00%     99.98% # attempts to use FU when none available (Count)
system.cpu.statFuBusy::SimdShift                    0      0.00%     99.98% # attempts to use FU when none available (Count)
system.cpu.statFuBusy::SimdShiftAcc                 0      0.00%     99.98% # attempts to use FU when none available (Count)
system.cpu.statFuBusy::SimdDiv                      0      0.00%     99.98% # attempts to use FU when none available (Count)
system.cpu.statFuBusy::SimdSqrt                     0      0.00%     99.98% # attempts to use FU when none available (Count)
system.cpu.statFuBusy::SimdFloatAdd                 0      0.00%     99.98% # attempts to use FU when none available (Count)
system.cpu.statFuBusy::SimdFloatAlu                 0      0.00%     99.98% # attempts to use FU when none available (Count)
system.cpu.statFuBusy::SimdFloatCmp                 0      0.00%     99.98% # attempts to use FU when none available (Count)
system.cpu.statFuBusy::SimdFloatCvt                 0      0.00%     99.98% # attempts to use FU when none available (Count)
system.cpu.statFuBusy::SimdFloatDiv                 0      0.00%     99.98% # attempts to use FU when none available (Count)
system.cpu.statFuBusy::SimdFloatMisc                0      0.00%     99.98% # attempts to use FU when none available (Count)
system.cpu.statFuBusy::SimdFloatMult                0      0.00%     99.98% # attempts to use FU when none available (Count)
system.cpu.statFuBusy::SimdFloatMultAcc             0      0.00%     99.98% # attempts to use FU when none available (Count)
system.cpu.statFuBusy::SimdFloatSqrt                0      0.00%     99.98% # attempts to use FU when none available (Count)
system.cpu.statFuBusy::SimdReduceAdd                0      0.00%     99.98% # attempts to use FU when none available (Count)
system.cpu.statFuBusy::SimdReduceAlu                0      0.00%     99.98% # attempts to use FU when none available (Count)
system.cpu.statFuBusy::SimdReduceCmp                0      0.00%     99.98% # attempts to use FU when none available (Count)
system.cpu.statFuBusy::SimdFloatReduceAdd            0      0.00%     99.98% # attempts to use FU when none available (Count)
system.cpu.statFuBusy::SimdFloatReduceCmp            0      0.00%     99.98% # attempts to use FU when none available (Count)
system.cpu.statFuBusy::SimdAes                      0      0.00%     99.98% # attempts to use FU when none available (Count)
system.cpu.statFuBusy::SimdAesMix                   0      0.00%     99.98% # attempts to use FU when none available (Count)
system.cpu.statFuBusy::SimdSha1Hash                 0      0.00%     99.98% # attempts to use FU when none available (Count)
system.cpu.statFuBusy::SimdSha1Hash2                0      0.00%     99.98% # attempts to use FU when none available (Count)
system.cpu.statFuBusy::SimdSha256Hash               0      0.00%     99.98% # attempts to use FU when none available (Count)
system.cpu.statFuBusy::SimdSha256Hash2              0      0.00%     99.98% # attempts to use FU when none available (Count)
system.cpu.statFuBusy::SimdShaSigma2                0      0.00%     99.98% # attempts to use FU when none available (Count)
system.cpu.statFuBusy::SimdShaSigma3                0      0.00%     99.98% # attempts to use FU when none available (Count)
system.cpu.statFuBusy::SimdPredAlu                  0      0.00%     99.98% # attempts to use FU when none available (Count)
system.cpu.statFuBusy::MemRead                     29      0.01%     99.99% # attempts to use FU when none available (Count)
system.cpu.statFuBusy::MemWrite                    19      0.01%    100.00% # attempts to use FU when none available (Count)
system.cpu.statFuBusy::FloatMemRead                 6      0.00%    100.00% # attempts to use FU when none available (Count)
system.cpu.statFuBusy::FloatMemWrite                7      0.00%    100.00% # attempts to use FU when none available (Count)
system.cpu.statFuBusy::IprAccess                    0      0.00%    100.00% # attempts to use FU when none available (Count)
system.cpu.statFuBusy::InstPrefetch                 0      0.00%    100.00% # attempts to use FU when none available (Count)
system.cpu.statIssuedInstType_0::No_OpClass          626      0.02%      0.02% # Number of instructions issued per FU type, per thread (Count)
system.cpu.statIssuedInstType_0::IntAlu       3625632     92.67%     92.68% # Number of instructions issued per FU type, per thread (Count)
system.cpu.statIssuedInstType_0::IntMult            5      0.00%     92.68% # Number of instructions issued per FU type, per thread (Count)
system.cpu.statIssuedInstType_0::IntDiv            22      0.00%     92.68% # Number of instructions issued per FU type, per thread (Count)
system.cpu.statIssuedInstType_0::FloatAdd          136      0.00%     92.69% # Number of instructions issued per FU type, per thread (Count)
system.cpu.statIssuedInstType_0::FloatCmp            0      0.00%     92.69% # Number of instructions issued per FU type, per thread (Count)
system.cpu.statIssuedInstType_0::FloatCvt            0      0.00%     92.69% # Number of instructions issued per FU type, per thread (Count)
system.cpu.statIssuedInstType_0::FloatMult            0      0.00%     92.69% # Number of instructions issued per FU type, per thread (Count)
system.cpu.statIssuedInstType_0::FloatMultAcc            0      0.00%     92.69% # Number of instructions issued per FU type, per thread (Count)
system.cpu.statIssuedInstType_0::FloatDiv            0      0.00%     92.69% # Number of instructions issued per FU type, per thread (Count)
system.cpu.statIssuedInstType_0::FloatMisc            0      0.00%     92.69% # Number of instructions issued per FU type, per thread (Count)
system.cpu.statIssuedInstType_0::FloatSqrt            0      0.00%     92.69% # Number of instructions issued per FU type, per thread (Count)
system.cpu.statIssuedInstType_0::SimdAdd            0      0.00%     92.69% # Number of instructions issued per FU type, per thread (Count)
system.cpu.statIssuedInstType_0::SimdAddAcc            0      0.00%     92.69% # Number of instructions issued per FU type, per thread (Count)
system.cpu.statIssuedInstType_0::SimdAlu          158      0.00%     92.69% # Number of instructions issued per FU type, per thread (Count)
system.cpu.statIssuedInstType_0::SimdCmp            0      0.00%     92.69% # Number of instructions issued per FU type, per thread (Count)
system.cpu.statIssuedInstType_0::SimdCvt           49      0.00%     92.69% # Number of instructions issued per FU type, per thread (Count)
system.cpu.statIssuedInstType_0::SimdMisc          218      0.01%     92.70% # Number of instructions issued per FU type, per thread (Count)
system.cpu.statIssuedInstType_0::SimdMult            0      0.00%     92.70% # Number of instructions issued per FU type, per thread (Count)
system.cpu.statIssuedInstType_0::SimdMultAcc            0      0.00%     92.70% # Number of instructions issued per FU type, per thread (Count)
system.cpu.statIssuedInstType_0::SimdShift            0      0.00%     92.70% # Number of instructions issued per FU type, per thread (Count)
system.cpu.statIssuedInstType_0::SimdShiftAcc            0      0.00%     92.70% # Number of instructions issued per FU type, per thread (Count)
system.cpu.statIssuedInstType_0::SimdDiv            0      0.00%     92.70% # Number of instructions issued per FU type, per thread (Count)
system.cpu.statIssuedInstType_0::SimdSqrt            0      0.00%     92.70% # Number of instructions issued per FU type, per thread (Count)
system.cpu.statIssuedInstType_0::SimdFloatAdd            0      0.00%     92.70% # Number of instructions issued per FU type, per thread (Count)
system.cpu.statIssuedInstType_0::SimdFloatAlu            0      0.00%     92.70% # Number of instructions issued per FU type, per thread (Count)
system.cpu.statIssuedInstType_0::SimdFloatCmp            0      0.00%     92.70% # Number of instructions issued per FU type, per thread (Count)
system.cpu.statIssuedInstType_0::SimdFloatCvt            0      0.00%     92.70% # Number of instructions issued per FU type, per thread (Count)
system.cpu.statIssuedInstType_0::SimdFloatDiv            0      0.00%     92.70% # Number of instructions issued per FU type, per thread (Count)
system.cpu.statIssuedInstType_0::SimdFloatMisc            0      0.00%     92.70% # Number of instructions issued per FU type, per thread (Count)
system.cpu.statIssuedInstType_0::SimdFloatMult            0      0.00%     92.70% # Number of instructions issued per FU type, per thread (Count)
system.cpu.statIssuedInstType_0::SimdFloatMultAcc            0      0.00%     92.70% # Number of instructions issued per FU type, per thread (Count)
system.cpu.statIssuedInstType_0::SimdFloatSqrt            0      0.00%     92.70% # Number of instructions issued per FU type, per thread (Count)
system.cpu.statIssuedInstType_0::SimdReduceAdd            0      0.00%     92.70% # Number of instructions issued per FU type, per thread (Count)
system.cpu.statIssuedInstType_0::SimdReduceAlu            0      0.00%     92.70% # Number of instructions issued per FU type, per thread (Count)
system.cpu.statIssuedInstType_0::SimdReduceCmp            0      0.00%     92.70% # Number of instructions issued per FU type, per thread (Count)
system.cpu.statIssuedInstType_0::SimdFloatReduceAdd            0      0.00%     92.70% # Number of instructions issued per FU type, per thread (Count)
system.cpu.statIssuedInstType_0::SimdFloatReduceCmp            0      0.00%     92.70% # Number of instructions issued per FU type, per thread (Count)
system.cpu.statIssuedInstType_0::SimdAes            0      0.00%     92.70% # Number of instructions issued per FU type, per thread (Count)
system.cpu.statIssuedInstType_0::SimdAesMix            0      0.00%     92.70% # Number of instructions issued per FU type, per thread (Count)
system.cpu.statIssuedInstType_0::SimdSha1Hash            0      0.00%     92.70% # Number of instructions issued per FU type, per thread (Count)
system.cpu.statIssuedInstType_0::SimdSha1Hash2            0      0.00%     92.70% # Number of instructions issued per FU type, per thread (Count)
system.cpu.statIssuedInstType_0::SimdSha256Hash            0      0.00%     92.70% # Number of instructions issued per FU type, per thread (Count)
system.cpu.statIssuedInstType_0::SimdSha256Hash2            0      0.00%     92.70% # Number of instructions issued per FU type, per thread (Count)
system.cpu.statIssuedInstType_0::SimdShaSigma2            0      0.00%     92.70% # Number of instructions issued per FU type, per thread (Count)
system.cpu.statIssuedInstType_0::SimdShaSigma3            0      0.00%     92.70% # Number of instructions issued per FU type, per thread (Count)
system.cpu.statIssuedInstType_0::SimdPredAlu            0      0.00%     92.70% # Number of instructions issued per FU type, per thread (Count)
system.cpu.statIssuedInstType_0::MemRead       283366      7.24%     99.94% # Number of instructions issued per FU type, per thread (Count)
system.cpu.statIssuedInstType_0::MemWrite         1744      0.04%     99.98% # Number of instructions issued per FU type, per thread (Count)
system.cpu.statIssuedInstType_0::FloatMemRead           88      0.00%     99.99% # Number of instructions issued per FU type, per thread (Count)
system.cpu.statIssuedInstType_0::FloatMemWrite          528      0.01%    100.00% # Number of instructions issued per FU type, per thread (Count)
system.cpu.statIssuedInstType_0::IprAccess            0      0.00%    100.00% # Number of instructions issued per FU type, per thread (Count)
system.cpu.statIssuedInstType_0::InstPrefetch            0      0.00%    100.00% # Number of instructions issued per FU type, per thread (Count)
system.cpu.statIssuedInstType_0::total        3912572                       # Number of instructions issued per FU type, per thread (Count)
system.cpu.issueRate                         2.815237                       # Inst issue rate ((Count/Cycle))
system.cpu.fuBusy                              279903                       # FU busy when requested (Count)
system.cpu.fuBusyRate                        0.071539                       # FU busy rate (busy events/executed inst) ((Count/Count))
system.cpu.intInstQueueReads                  9642222                       # Number of integer instruction queue reads (Count)
system.cpu.intInstQueueWrites                 7799961                       # Number of integer instruction queue writes (Count)
system.cpu.intInstQueueWakeupAccesses         3758381                       # Number of integer instruction queue wakeup accesses (Count)
system.cpu.fpInstQueueReads                      2665                       # Number of floating instruction queue reads (Count)
system.cpu.fpInstQueueWrites                     1557                       # Number of floating instruction queue writes (Count)
system.cpu.fpInstQueueWakeupAccesses             1281                       # Number of floating instruction queue wakeup accesses (Count)
system.cpu.vecInstQueueReads                        0                       # Number of vector instruction queue reads (Count)
system.cpu.vecInstQueueWrites                       0                       # Number of vector instruction queue writes (Count)
system.cpu.vecInstQueueWakeupAccesses               0                       # Number of vector instruction queue wakeup accesses (Count)
system.cpu.intAluAccesses                     4190503                       # Number of integer alu accesses (Count)
system.cpu.fpAluAccesses                         1346                       # Number of floating point alu accesses (Count)
system.cpu.vecAluAccesses                           0                       # Number of vector alu accesses (Count)
system.cpu.idleCycles                               0                       # Number of cycles IEW is idle (Cycle)
system.cpu.squashCycles                         63182                       # Number of cycles IEW is squashing (Cycle)
system.cpu.blockCycles                         331005                       # Number of cycles IEW is blocking (Cycle)
system.cpu.unblockCycles                          730                       # Number of cycles IEW is unblocking (Cycle)
system.cpu.dispatchedInsts                    4793414                       # Number of instructions dispatched to IQ (Count)
system.cpu.dispSquashedInsts                      114                       # Number of squashed instructions skipped by dispatch (Count)
system.cpu.dispLoadInsts                       355575                       # Number of dispatched load instructions (Count)
system.cpu.dispStoreInsts                        2642                       # Number of dispatched store instructions (Count)
system.cpu.dispNonSpecInsts                         1                       # Number of dispatched non-speculative instructions (Count)
system.cpu.iqFullEvents                            13                       # Number of times the IQ has become full, causing a stall (Count)
system.cpu.lsqFullEvents                          713                       # Number of times the LSQ has become full, causing a stall (Count)
system.cpu.memOrderViolationEvents                 11                       # Number of memory order violations (Count)
system.cpu.predictedTakenIncorrect              36999                       # Number of branches that were predicted taken incorrectly (Count)
system.cpu.predictedNotTakenIncorrect           39248                       # Number of branches that were predicted not taken incorrectly (Count)
system.cpu.branchMispredicts                    76247                       # Number of branch mispredicts detected at execute (Count)
system.cpu.numInsts                           3817651                       # Number of executed instructions (Count)
system.cpu.numLoadInsts                        256752                       # Number of load instructions executed (Count)
system.cpu.numSquashedInsts                     94915                       # Number of squashed instructions skipped in execute (Count)
system.cpu.numSwp                                   0                       # Number of swp insts executed (Count)
system.cpu.numNop                                   0                       # Number of nop insts executed (Count)
system.cpu.numRefs                             258931                       # Number of memory reference insts executed (Count)
system.cpu.numBranches                         415143                       # Number of branches executed (Count)
system.cpu.numStoreInsts                         2179                       # Number of stores executed (Count)
system.cpu.numRate                           2.746938                       # Inst execution rate ((Count/Cycle))
system.cpu.instsToCommit                      3789449                       # Cumulative count of insts sent to commit (Count)
system.cpu.writebackCount                     3759662                       # Cumulative count of insts written-back (Count)
system.cpu.producerInst                       2929187                       # Number of instructions producing a value (Count)
system.cpu.consumerInst                       4472383                       # Number of instructions consuming a value (Count)
system.cpu.wbRate                            2.705213                       # Insts written-back per cycle ((Count/Cycle))
system.cpu.wbFanout                          0.654950                       # Average fanout of values written-back ((Count/Count))
system.cpu.timesIdled                             309                       # Number of times that the entire CPU went into an idle state and unscheduled itself (Count)
system.cpu.idleCycles                           22338                       # Total number of cycles that the CPU has spent unscheduled due to idling (Cycle)
system.cpu.committedInsts                      859855                       # Number of Instructions Simulated (Count)
system.cpu.committedOps                       1785306                       # Number of Ops (including micro ops) Simulated (Count)
system.cpu.cpi                               1.616300                       # CPI: Cycles Per Instruction ((Cycle/Count))
system.cpu.totalCpi                          1.616300                       # CPI: Total CPI of All Threads ((Cycle/Count))
system.cpu.ipc                               0.618697                       # IPC: Instructions Per Cycle ((Count/Cycle))
system.cpu.totalIpc                          0.618697                       # IPC: Total IPC of All Threads ((Count/Cycle))
system.cpu.intRegfileReads                    5185324                       # Number of integer regfile reads (Count)
system.cpu.intRegfileWrites                   3370747                       # Number of integer regfile writes (Count)
system.cpu.fpRegfileReads                        1534                       # Number of floating regfile reads (Count)
system.cpu.fpRegfileWrites                        719                       # Number of floating regfile writes (Count)
system.cpu.ccRegfileReads                     2074438                       # number of cc regfile reads (Count)
system.cpu.ccRegfileWrites                    1604193                       # number of cc regfile writes (Count)
system.cpu.miscRegfileReads                   1280140                       # number of misc regfile reads (Count)
system.cpu.MemDepUnit__0.insertedLoads         355575                       # Number of loads inserted to the mem dependence unit. (Count)
system.cpu.MemDepUnit__0.insertedStores          2642                       # Number of stores inserted to the mem dependence unit. (Count)
system.cpu.MemDepUnit__0.conflictingLoads           24                       # Number of conflicting loads. (Count)
system.cpu.MemDepUnit__0.conflictingStores            4                       # Number of conflicting stores. (Count)
system.cpu.MemDepUnit__1.insertedLoads              0                       # Number of loads inserted to the mem dependence unit. (Count)
system.cpu.MemDepUnit__1.insertedStores             0                       # Number of stores inserted to the mem dependence unit. (Count)
system.cpu.MemDepUnit__1.conflictingLoads            0                       # Number of conflicting loads. (Count)
system.cpu.MemDepUnit__1.conflictingStores            0                       # Number of conflicting stores. (Count)
system.cpu.MemDepUnit__2.insertedLoads              0                       # Number of loads inserted to the mem dependence unit. (Count)
system.cpu.MemDepUnit__2.insertedStores             0                       # Number of stores inserted to the mem dependence unit. (Count)
system.cpu.MemDepUnit__2.conflictingLoads            0                       # Number of conflicting loads. (Count)
system.cpu.MemDepUnit__2.conflictingStores            0                       # Number of conflicting stores. (Count)
system.cpu.MemDepUnit__3.insertedLoads              0                       # Number of loads inserted to the mem dependence unit. (Count)
system.cpu.MemDepUnit__3.insertedStores             0                       # Number of stores inserted to the mem dependence unit. (Count)
system.cpu.MemDepUnit__3.conflictingLoads            0                       # Number of conflicting loads. (Count)
system.cpu.MemDepUnit__3.conflictingStores            0                       # Number of conflicting stores. (Count)
system.cpu.branchPred.lookups                 1088669                       # Number of BP lookups (Count)
system.cpu.branchPred.condPredicted           1087258                       # Number of conditional branches predicted (Count)
system.cpu.branchPred.condIncorrect             63281                       # Number of conditional branches incorrect (Count)
system.cpu.branchPred.BTBLookups               542970                       # Number of BTB lookups (Count)
system.cpu.branchPred.BTBHits                  542250                       # Number of BTB hits (Count)
system.cpu.branchPred.BTBHitRatio            0.998674                       # BTB Hit Ratio (Ratio)
system.cpu.branchPred.RASUsed                     381                       # Number of times the RAS was used to get a target. (Count)
system.cpu.branchPred.RASIncorrect                  0                       # Number of incorrect RAS predictions. (Count)
system.cpu.branchPred.indirectLookups             308                       # Number of indirect predictor lookups. (Count)
system.cpu.branchPred.indirectHits                 19                       # Number of indirect target hits. (Count)
system.cpu.branchPred.indirectMisses              289                       # Number of indirect misses. (Count)
system.cpu.branchPred.indirectMispredicted           89                       # Number of mispredicted indirect branches. (Count)
system.cpu.commit.commitSquashedInsts         3007878                       # The number of squashed insts skipped by commit (Count)
system.cpu.commit.branchMispredicts             63162                       # The number of times a branch was mispredicted (Count)
system.cpu.commit.numCommittedDist::samples       973554                       # Number of insts commited each cycle (Count)
system.cpu.commit.numCommittedDist::mean     1.833803                       # Number of insts commited each cycle (Count)
system.cpu.commit.numCommittedDist::stdev     2.279938                       # Number of insts commited each cycle (Count)
system.cpu.commit.numCommittedDist::underflows            0      0.00%      0.00% # Number of insts commited each cycle (Count)
system.cpu.commit.numCommittedDist::0          417799     42.91%     42.91% # Number of insts commited each cycle (Count)
system.cpu.commit.numCommittedDist::1           96350      9.90%     52.81% # Number of insts commited each cycle (Count)
system.cpu.commit.numCommittedDist::2          172762     17.75%     70.56% # Number of insts commited each cycle (Count)
system.cpu.commit.numCommittedDist::3          138956     14.27%     84.83% # Number of insts commited each cycle (Count)
system.cpu.commit.numCommittedDist::4           49308      5.06%     89.89% # Number of insts commited each cycle (Count)
system.cpu.commit.numCommittedDist::5            8305      0.85%     90.75% # Number of insts commited each cycle (Count)
system.cpu.commit.numCommittedDist::6           13513      1.39%     92.14% # Number of insts commited each cycle (Count)
system.cpu.commit.numCommittedDist::7            5759      0.59%     92.73% # Number of insts commited each cycle (Count)
system.cpu.commit.numCommittedDist::8           70802      7.27%    100.00% # Number of insts commited each cycle (Count)
system.cpu.commit.numCommittedDist::overflows            0      0.00%    100.00% # Number of insts commited each cycle (Count)
system.cpu.commit.numCommittedDist::min_value            0                       # Number of insts commited each cycle (Count)
system.cpu.commit.numCommittedDist::max_value            8                       # Number of insts commited each cycle (Count)
system.cpu.commit.numCommittedDist::total       973554                       # Number of insts commited each cycle (Count)
system.cpu.commit.instsCommitted               859855                       # Number of instructions committed (Count)
system.cpu.commit.opsCommitted                1785306                       # Number of ops (including micro ops) committed (Count)
system.cpu.commit.memRefs                      134258                       # Number of memory references committed (Count)
system.cpu.commit.loads                        132622                       # Number of loads committed (Count)
system.cpu.commit.amos                              0                       # Number of atomic instructions committed (Count)
system.cpu.commit.membars                           0                       # Number of memory barriers committed (Count)
system.cpu.commit.branches                     263903                       # Number of branches committed (Count)
system.cpu.commit.vectorInstructions                0                       # Number of committed Vector instructions. (Count)
system.cpu.commit.floating                       1149                       # Number of committed floating point instructions. (Count)
system.cpu.commit.integer                     1784556                       # Number of committed integer instructions. (Count)
system.cpu.commit.functionCalls                   150                       # Number of function calls committed. (Count)
system.cpu.commit.committedInstType_0::No_OpClass          195      0.01%      0.01% # Class of committed instruction (Count)
system.cpu.commit.committedInstType_0::IntAlu      1650337     92.44%     92.45% # Class of committed instruction (Count)
system.cpu.commit.committedInstType_0::IntMult            5      0.00%     92.45% # Class of committed instruction (Count)
system.cpu.commit.committedInstType_0::IntDiv           21      0.00%     92.45% # Class of committed instruction (Count)
system.cpu.commit.committedInstType_0::FloatAdd          135      0.01%     92.46% # Class of committed instruction (Count)
system.cpu.commit.committedInstType_0::FloatCmp            0      0.00%     92.46% # Class of committed instruction (Count)
system.cpu.commit.committedInstType_0::FloatCvt            0      0.00%     92.46% # Class of committed instruction (Count)
system.cpu.commit.committedInstType_0::FloatMult            0      0.00%     92.46% # Class of committed instruction (Count)
system.cpu.commit.committedInstType_0::FloatMultAcc            0      0.00%     92.46% # Class of committed instruction (Count)
system.cpu.commit.committedInstType_0::FloatDiv            0      0.00%     92.46% # Class of committed instruction (Count)
system.cpu.commit.committedInstType_0::FloatMisc            0      0.00%     92.46% # Class of committed instruction (Count)
system.cpu.commit.committedInstType_0::FloatSqrt            0      0.00%     92.46% # Class of committed instruction (Count)
system.cpu.commit.committedInstType_0::SimdAdd            0      0.00%     92.46% # Class of committed instruction (Count)
system.cpu.commit.committedInstType_0::SimdAddAcc            0      0.00%     92.46% # Class of committed instruction (Count)
system.cpu.commit.committedInstType_0::SimdAlu           94      0.01%     92.47% # Class of committed instruction (Count)
system.cpu.commit.committedInstType_0::SimdCmp            0      0.00%     92.47% # Class of committed instruction (Count)
system.cpu.commit.committedInstType_0::SimdCvt           46      0.00%     92.47% # Class of committed instruction (Count)
system.cpu.commit.committedInstType_0::SimdMisc          215      0.01%     92.48% # Class of committed instruction (Count)
system.cpu.commit.committedInstType_0::SimdMult            0      0.00%     92.48% # Class of committed instruction (Count)
system.cpu.commit.committedInstType_0::SimdMultAcc            0      0.00%     92.48% # Class of committed instruction (Count)
system.cpu.commit.committedInstType_0::SimdShift            0      0.00%     92.48% # Class of committed instruction (Count)
system.cpu.commit.committedInstType_0::SimdShiftAcc            0      0.00%     92.48% # Class of committed instruction (Count)
system.cpu.commit.committedInstType_0::SimdDiv            0      0.00%     92.48% # Class of committed instruction (Count)
system.cpu.commit.committedInstType_0::SimdSqrt            0      0.00%     92.48% # Class of committed instruction (Count)
system.cpu.commit.committedInstType_0::SimdFloatAdd            0      0.00%     92.48% # Class of committed instruction (Count)
system.cpu.commit.committedInstType_0::SimdFloatAlu            0      0.00%     92.48% # Class of committed instruction (Count)
system.cpu.commit.committedInstType_0::SimdFloatCmp            0      0.00%     92.48% # Class of committed instruction (Count)
system.cpu.commit.committedInstType_0::SimdFloatCvt            0      0.00%     92.48% # Class of committed instruction (Count)
system.cpu.commit.committedInstType_0::SimdFloatDiv            0      0.00%     92.48% # Class of committed instruction (Count)
system.cpu.commit.committedInstType_0::SimdFloatMisc            0      0.00%     92.48% # Class of committed instruction (Count)
system.cpu.commit.committedInstType_0::SimdFloatMult            0      0.00%     92.48% # Class of committed instruction (Count)
system.cpu.commit.committedInstType_0::SimdFloatMultAcc            0      0.00%     92.48% # Class of committed instruction (Count)
system.cpu.commit.committedInstType_0::SimdFloatSqrt            0      0.00%     92.48% # Class of committed instruction (Count)
system.cpu.commit.committedInstType_0::SimdReduceAdd            0      0.00%     92.48% # Class of committed instruction (Count)
system.cpu.commit.committedInstType_0::SimdReduceAlu            0      0.00%     92.48% # Class of committed instruction (Count)
system.cpu.commit.committedInstType_0::SimdReduceCmp            0      0.00%     92.48% # Class of committed instruction (Count)
system.cpu.commit.committedInstType_0::SimdFloatReduceAdd            0      0.00%     92.48% # Class of committed instruction (Count)
system.cpu.commit.committedInstType_0::SimdFloatReduceCmp            0      0.00%     92.48% # Class of committed instruction (Count)
system.cpu.commit.committedInstType_0::SimdAes            0      0.00%     92.48% # Class of committed instruction (Count)
system.cpu.commit.committedInstType_0::SimdAesMix            0      0.00%     92.48% # Class of committed instruction (Count)
system.cpu.commit.committedInstType_0::SimdSha1Hash            0      0.00%     92.48% # Class of committed instruction (Count)
system.cpu.commit.committedInstType_0::SimdSha1Hash2            0      0.00%     92.48% # Class of committed instruction (Count)
system.cpu.commit.committedInstType_0::SimdSha256Hash            0      0.00%     92.48% # Class of committed instruction (Count)
system.cpu.commit.committedInstType_0::SimdSha256Hash2            0      0.00%     92.48% # Class of committed instruction (Count)
system.cpu.commit.committedInstType_0::SimdShaSigma2            0      0.00%     92.48% # Class of committed instruction (Count)
system.cpu.commit.committedInstType_0::SimdShaSigma3            0      0.00%     92.48% # Class of committed instruction (Count)
system.cpu.commit.committedInstType_0::SimdPredAlu            0      0.00%     92.48% # Class of committed instruction (Count)
system.cpu.commit.committedInstType_0::MemRead       132568      7.43%     99.91% # Class of committed instruction (Count)
system.cpu.commit.committedInstType_0::MemWrite         1170      0.07%     99.97% # Class of committed instruction (Count)
system.cpu.commit.committedInstType_0::FloatMemRead           54      0.00%     99.97% # Class of committed instruction (Count)
system.cpu.commit.committedInstType_0::FloatMemWrite          466      0.03%    100.00% # Class of committed instruction (Count)
system.cpu.commit.committedInstType_0::IprAccess            0      0.00%    100.00% # Class of committed instruction (Count)
system.cpu.commit.committedInstType_0::InstPrefetch            0      0.00%    100.00% # Class of committed instruction (Count)
system.cpu.commit.committedInstType_0::total      1785306                       # Class of committed instruction (Count)
system.cpu.commit.commitEligibleSamples         70802                       # number cycles where commit BW limit reached (Cycle)
system.cpu.dcache.demandHits::cpu.data         253587                       # number of demand (read+write) hits (Count)
system.cpu.dcache.demandHits::total            253587                       # number of demand (read+write) hits (Count)
system.cpu.dcache.overallHits::cpu.data        253587                       # number of overall hits (Count)
system.cpu.dcache.overallHits::total           253587                       # number of overall hits (Count)
system.cpu.dcache.demandMisses::cpu.data         4510                       # number of demand (read+write) misses (Count)
system.cpu.dcache.demandMisses::total            4510                       # number of demand (read+write) misses (Count)
system.cpu.dcache.overallMisses::cpu.data         4510                       # number of overall misses (Count)
system.cpu.dcache.overallMisses::total           4510                       # number of overall misses (Count)
system.cpu.dcache.demandMissLatency::cpu.data    361718000                       # number of demand (read+write) miss ticks (Tick)
system.cpu.dcache.demandMissLatency::total    361718000                       # number of demand (read+write) miss ticks (Tick)
system.cpu.dcache.overallMissLatency::cpu.data    361718000                       # number of overall miss ticks (Tick)
system.cpu.dcache.overallMissLatency::total    361718000                       # number of overall miss ticks (Tick)
system.cpu.dcache.demandAccesses::cpu.data       258097                       # number of demand (read+write) accesses (Count)
system.cpu.dcache.demandAccesses::total        258097                       # number of demand (read+write) accesses (Count)
system.cpu.dcache.overallAccesses::cpu.data       258097                       # number of overall (read+write) accesses (Count)
system.cpu.dcache.overallAccesses::total       258097                       # number of overall (read+write) accesses (Count)
system.cpu.dcache.demandMissRate::cpu.data     0.017474                       # miss rate for demand accesses (Ratio)
system.cpu.dcache.demandMissRate::total      0.017474                       # miss rate for demand accesses (Ratio)
system.cpu.dcache.overallMissRate::cpu.data     0.017474                       # miss rate for overall accesses (Ratio)
system.cpu.dcache.overallMissRate::total     0.017474                       # miss rate for overall accesses (Ratio)
system.cpu.dcache.demandAvgMissLatency::cpu.data 80203.547672                       # average overall miss latency ((Cycle/Count))
system.cpu.dcache.demandAvgMissLatency::total 80203.547672                       # average overall miss latency ((Cycle/Count))
system.cpu.dcache.overallAvgMissLatency::cpu.data 80203.547672                       # average overall miss latency ((Cycle/Count))
system.cpu.dcache.overallAvgMissLatency::total 80203.547672                       # average overall miss latency ((Cycle/Count))
system.cpu.dcache.blockedCycles::no_mshrs          416                       # number of cycles access was blocked (Cycle)
system.cpu.dcache.blockedCycles::no_targets            0                       # number of cycles access was blocked (Cycle)
system.cpu.dcache.blockedCauses::no_mshrs           14                       # number of times access was blocked (Count)
system.cpu.dcache.blockedCauses::no_targets            0                       # number of times access was blocked (Count)
system.cpu.dcache.avgBlocked::no_mshrs      29.714286                       # average number of cycles each access was blocked ((Cycle/Count))
system.cpu.dcache.avgBlocked::no_targets          nan                       # average number of cycles each access was blocked ((Cycle/Count))
system.cpu.dcache.writebacks::writebacks            4                       # number of writebacks (Count)
system.cpu.dcache.writebacks::total                 4                       # number of writebacks (Count)
system.cpu.dcache.demandMshrHits::cpu.data         4016                       # number of demand (read+write) MSHR hits (Count)
system.cpu.dcache.demandMshrHits::total          4016                       # number of demand (read+write) MSHR hits (Count)
system.cpu.dcache.overallMshrHits::cpu.data         4016                       # number of overall MSHR hits (Count)
system.cpu.dcache.overallMshrHits::total         4016                       # number of overall MSHR hits (Count)
system.cpu.dcache.demandMshrMisses::cpu.data          494                       # number of demand (read+write) MSHR misses (Count)
system.cpu.dcache.demandMshrMisses::total          494                       # number of demand (read+write) MSHR misses (Count)
system.cpu.dcache.overallMshrMisses::cpu.data          494                       # number of overall MSHR misses (Count)
system.cpu.dcache.overallMshrMisses::total          494                       # number of overall MSHR misses (Count)
system.cpu.dcache.demandMshrMissLatency::cpu.data     51066000                       # number of demand (read+write) MSHR miss ticks (Tick)
system.cpu.dcache.demandMshrMissLatency::total     51066000                       # number of demand (read+write) MSHR miss ticks (Tick)
system.cpu.dcache.overallMshrMissLatency::cpu.data     51066000                       # number of overall MSHR miss ticks (Tick)
system.cpu.dcache.overallMshrMissLatency::total     51066000                       # number of overall MSHR miss ticks (Tick)
system.cpu.dcache.demandMshrMissRate::cpu.data     0.001914                       # mshr miss ratio for demand accesses (Ratio)
system.cpu.dcache.demandMshrMissRate::total     0.001914                       # mshr miss ratio for demand accesses (Ratio)
system.cpu.dcache.overallMshrMissRate::cpu.data     0.001914                       # mshr miss ratio for overall accesses (Ratio)
system.cpu.dcache.overallMshrMissRate::total     0.001914                       # mshr miss ratio for overall accesses (Ratio)
system.cpu.dcache.demandAvgMshrMissLatency::cpu.data 103372.469636                       # average overall mshr miss latency ((Cycle/Count))
system.cpu.dcache.demandAvgMshrMissLatency::total 103372.469636                       # average overall mshr miss latency ((Cycle/Count))
system.cpu.dcache.overallAvgMshrMissLatency::cpu.data 103372.469636                       # average overall mshr miss latency ((Cycle/Count))
system.cpu.dcache.overallAvgMshrMissLatency::total 103372.469636                       # average overall mshr miss latency ((Cycle/Count))
system.cpu.dcache.replacements                      4                       # number of replacements (Count)
system.cpu.dcache.ReadReq.hits::cpu.data       252066                       # number of ReadReq hits (Count)
system.cpu.dcache.ReadReq.hits::total          252066                       # number of ReadReq hits (Count)
system.cpu.dcache.ReadReq.misses::cpu.data         4394                       # number of ReadReq misses (Count)
system.cpu.dcache.ReadReq.misses::total          4394                       # number of ReadReq misses (Count)
system.cpu.dcache.ReadReq.missLatency::cpu.data    349690000                       # number of ReadReq miss ticks (Tick)
system.cpu.dcache.ReadReq.missLatency::total    349690000                       # number of ReadReq miss ticks (Tick)
system.cpu.dcache.ReadReq.accesses::cpu.data       256460                       # number of ReadReq accesses(hits+misses) (Count)
system.cpu.dcache.ReadReq.accesses::total       256460                       # number of ReadReq accesses(hits+misses) (Count)
system.cpu.dcache.ReadReq.missRate::cpu.data     0.017133                       # miss rate for ReadReq accesses (Ratio)
system.cpu.dcache.ReadReq.missRate::total     0.017133                       # miss rate for ReadReq accesses (Ratio)
system.cpu.dcache.ReadReq.avgMissLatency::cpu.data 79583.522986                       # average ReadReq miss latency ((Tick/Count))
system.cpu.dcache.ReadReq.avgMissLatency::total 79583.522986                       # average ReadReq miss latency ((Tick/Count))
system.cpu.dcache.ReadReq.mshrHits::cpu.data         4015                       # number of ReadReq MSHR hits (Count)
system.cpu.dcache.ReadReq.mshrHits::total         4015                       # number of ReadReq MSHR hits (Count)
system.cpu.dcache.ReadReq.mshrMisses::cpu.data          379                       # number of ReadReq MSHR misses (Count)
system.cpu.dcache.ReadReq.mshrMisses::total          379                       # number of ReadReq MSHR misses (Count)
system.cpu.dcache.ReadReq.mshrMissLatency::cpu.data     39348000                       # number of ReadReq MSHR miss ticks (Tick)
system.cpu.dcache.ReadReq.mshrMissLatency::total     39348000                       # number of ReadReq MSHR miss ticks (Tick)
system.cpu.dcache.ReadReq.mshrMissRate::cpu.data     0.001478                       # mshr miss rate for ReadReq accesses (Ratio)
system.cpu.dcache.ReadReq.mshrMissRate::total     0.001478                       # mshr miss rate for ReadReq accesses (Ratio)
system.cpu.dcache.ReadReq.avgMshrMissLatency::cpu.data 103820.580475                       # average ReadReq mshr miss latency ((Tick/Count))
system.cpu.dcache.ReadReq.avgMshrMissLatency::total 103820.580475                       # average ReadReq mshr miss latency ((Tick/Count))
system.cpu.dcache.WriteReq.hits::cpu.data         1521                       # number of WriteReq hits (Count)
system.cpu.dcache.WriteReq.hits::total           1521                       # number of WriteReq hits (Count)
system.cpu.dcache.WriteReq.misses::cpu.data          116                       # number of WriteReq misses (Count)
system.cpu.dcache.WriteReq.misses::total          116                       # number of WriteReq misses (Count)
system.cpu.dcache.WriteReq.missLatency::cpu.data     12028000                       # number of WriteReq miss ticks (Tick)
system.cpu.dcache.WriteReq.missLatency::total     12028000                       # number of WriteReq miss ticks (Tick)
system.cpu.dcache.WriteReq.accesses::cpu.data         1637                       # number of WriteReq accesses(hits+misses) (Count)
system.cpu.dcache.WriteReq.accesses::total         1637                       # number of WriteReq accesses(hits+misses) (Count)
system.cpu.dcache.WriteReq.missRate::cpu.data     0.070861                       # miss rate for WriteReq accesses (Ratio)
system.cpu.dcache.WriteReq.missRate::total     0.070861                       # miss rate for WriteReq accesses (Ratio)
system.cpu.dcache.WriteReq.avgMissLatency::cpu.data 103689.655172                       # average WriteReq miss latency ((Tick/Count))
system.cpu.dcache.WriteReq.avgMissLatency::total 103689.655172                       # average WriteReq miss latency ((Tick/Count))
system.cpu.dcache.WriteReq.mshrHits::cpu.data            1                       # number of WriteReq MSHR hits (Count)
system.cpu.dcache.WriteReq.mshrHits::total            1                       # number of WriteReq MSHR hits (Count)
system.cpu.dcache.WriteReq.mshrMisses::cpu.data          115                       # number of WriteReq MSHR misses (Count)
system.cpu.dcache.WriteReq.mshrMisses::total          115                       # number of WriteReq MSHR misses (Count)
system.cpu.dcache.WriteReq.mshrMissLatency::cpu.data     11718000                       # number of WriteReq MSHR miss ticks (Tick)
system.cpu.dcache.WriteReq.mshrMissLatency::total     11718000                       # number of WriteReq MSHR miss ticks (Tick)
system.cpu.dcache.WriteReq.mshrMissRate::cpu.data     0.070250                       # mshr miss rate for WriteReq accesses (Ratio)
system.cpu.dcache.WriteReq.mshrMissRate::total     0.070250                       # mshr miss rate for WriteReq accesses (Ratio)
system.cpu.dcache.WriteReq.avgMshrMissLatency::cpu.data 101895.652174                       # average WriteReq mshr miss latency ((Tick/Count))
system.cpu.dcache.WriteReq.avgMshrMissLatency::total 101895.652174                       # average WriteReq mshr miss latency ((Tick/Count))
system.cpu.dcache.power_state.pwrStateResidencyTicks::UNDEFINED   1389783000                       # Cumulative time (in ticks) in various power states (Tick)
system.cpu.dcache.tags.tagsInUse           443.556211                       # Average ticks per tags in use ((Tick/Count))
system.cpu.dcache.tags.totalRefs               254081                       # Total number of references to valid blocks. (Count)
system.cpu.dcache.tags.sampledRefs                494                       # Sample count of references to valid blocks. (Count)
system.cpu.dcache.tags.avgRefs             514.334008                       # Average number of references to valid blocks. ((Count/Count))
system.cpu.dcache.tags.warmupTick              222000                       # The tick when the warmup percentage was hit. (Tick)
system.cpu.dcache.tags.occupancies::cpu.data   443.556211                       # Average occupied blocks per tick, per requestor ((Count/Tick))
system.cpu.dcache.tags.avgOccs::cpu.data     0.433160                       # Average percentage of cache occupancy ((Ratio/Tick))
system.cpu.dcache.tags.avgOccs::total        0.433160                       # Average percentage of cache occupancy ((Ratio/Tick))
system.cpu.dcache.tags.occupanciesTaskId::1024          490                       # Occupied blocks per task id (Count)
system.cpu.dcache.tags.ageTaskId_1024::0           17                       # Occupied blocks per task id, per block age (Count)
system.cpu.dcache.tags.ageTaskId_1024::3          473                       # Occupied blocks per task id, per block age (Count)
system.cpu.dcache.tags.ratioOccsTaskId::1024     0.478516                       # Ratio of occupied blocks and all blocks, per task id (Ratio)
system.cpu.dcache.tags.tagAccesses             516688                       # Number of tag accesses (Count)
system.cpu.dcache.tags.dataAccesses            516688                       # Number of data accesses (Count)
system.cpu.dcache.tags.power_state.pwrStateResidencyTicks::UNDEFINED   1389783000                       # Cumulative time (in ticks) in various power states (Tick)
system.cpu.decode.idleCycles                   141068                       # Number of cycles decode is idle (Cycle)
system.cpu.decode.blockedCycles                355209                       # Number of cycles decode is blocked (Cycle)
system.cpu.decode.runCycles                    682185                       # Number of cycles decode is running (Cycle)
system.cpu.decode.unblockCycles                125802                       # Number of cycles decode is unblocking (Cycle)
system.cpu.decode.squashCycles                  63182                       # Number of cycles decode is squashing (Cycle)
system.cpu.decode.branchResolved               447833                       # Number of times decode resolved a branch (Count)
system.cpu.decode.branchMispred                   240                       # Number of times decode detected a branch misprediction (Count)
system.cpu.decode.decodedInsts                6287905                       # Number of instructions handled by decode (Count)
system.cpu.decode.squashedInsts                  1220                       # Number of squashed instructions handled by decode (Count)
system.cpu.fetch.icacheStallCycles              16508                       # Number of cycles fetch is stalled on an Icache miss (Cycle)
system.cpu.fetch.insts                        3629773                       # Number of instructions fetch has processed (Count)
system.cpu.fetch.branches                     1088669                       # Number of branches that fetch encountered (Count)
system.cpu.fetch.predictedBranches             542650                       # Number of branches that fetch has predicted taken (Count)
system.cpu.fetch.cycles                       1286665                       # Number of cycles fetch has run and was not squashing or blocked (Cycle)
system.cpu.fetch.squashCycles                  126822                       # Number of cycles fetch has spent squashing (Cycle)
system.cpu.fetch.miscStallCycles                  123                       # Number of cycles fetch has spent waiting on interrupts, or bad addresses, or out of MSHRs (Cycle)
system.cpu.fetch.pendingTrapStallCycles           724                       # Number of stall cycles due to pending traps (Cycle)
system.cpu.fetch.pendingQuiesceStallCycles            4                       # Number of stall cycles due to pending quiesce instructions (Cycle)
system.cpu.fetch.icacheWaitRetryStallCycles           11                       # Number of stall cycles due to full MSHR (Cycle)
system.cpu.fetch.cacheLines                      3350                       # Number of cache lines fetched (Count)
system.cpu.fetch.icacheSquashes                   434                       # Number of outstanding Icache misses that were squashed (Count)
system.cpu.fetch.nisnDist::samples            1367446                       # Number of instructions fetched each cycle (Total) (Count)
system.cpu.fetch.nisnDist::mean              5.439401                       # Number of instructions fetched each cycle (Total) (Count)
system.cpu.fetch.nisnDist::stdev             2.927939                       # Number of instructions fetched each cycle (Total) (Count)
system.cpu.fetch.nisnDist::underflows               0      0.00%      0.00% # Number of instructions fetched each cycle (Total) (Count)
system.cpu.fetch.nisnDist::0                   241357     17.65%     17.65% # Number of instructions fetched each cycle (Total) (Count)
system.cpu.fetch.nisnDist::1                    27185      1.99%     19.64% # Number of instructions fetched each cycle (Total) (Count)
system.cpu.fetch.nisnDist::2                     8990      0.66%     20.30% # Number of instructions fetched each cycle (Total) (Count)
system.cpu.fetch.nisnDist::3                      438      0.03%     20.33% # Number of instructions fetched each cycle (Total) (Count)
system.cpu.fetch.nisnDist::4                    20611      1.51%     21.83% # Number of instructions fetched each cycle (Total) (Count)
system.cpu.fetch.nisnDist::5                   255481     18.68%     40.52% # Number of instructions fetched each cycle (Total) (Count)
system.cpu.fetch.nisnDist::6                   235418     17.22%     57.73% # Number of instructions fetched each cycle (Total) (Count)
system.cpu.fetch.nisnDist::7                     4477      0.33%     58.06% # Number of instructions fetched each cycle (Total) (Count)
system.cpu.fetch.nisnDist::8                   573489     41.94%    100.00% # Number of instructions fetched each cycle (Total) (Count)
system.cpu.fetch.nisnDist::overflows                0      0.00%    100.00% # Number of instructions fetched each cycle (Total) (Count)
system.cpu.fetch.nisnDist::min_value                0                       # Number of instructions fetched each cycle (Total) (Count)
system.cpu.fetch.nisnDist::max_value                8                       # Number of instructions fetched each cycle (Total) (Count)
system.cpu.fetch.nisnDist::total              1367446                       # Number of instructions fetched each cycle (Total) (Count)
system.cpu.fetch.branchRate                  0.783337                       # Number of branch fetches per cycle (Ratio)
system.cpu.fetch.rate                        2.611753                       # Number of inst fetches per cycle ((Count/Cycle))
system.cpu.icache.demandHits::cpu.inst           2714                       # number of demand (read+write) hits (Count)
system.cpu.icache.demandHits::total              2714                       # number of demand (read+write) hits (Count)
system.cpu.icache.overallHits::cpu.inst          2714                       # number of overall hits (Count)
system.cpu.icache.overallHits::total             2714                       # number of overall hits (Count)
system.cpu.icache.demandMisses::cpu.inst          636                       # number of demand (read+write) misses (Count)
system.cpu.icache.demandMisses::total             636                       # number of demand (read+write) misses (Count)
system.cpu.icache.overallMisses::cpu.inst          636                       # number of overall misses (Count)
system.cpu.icache.overallMisses::total            636                       # number of overall misses (Count)
system.cpu.icache.demandMissLatency::cpu.inst     62136000                       # number of demand (read+write) miss ticks (Tick)
system.cpu.icache.demandMissLatency::total     62136000                       # number of demand (read+write) miss ticks (Tick)
system.cpu.icache.overallMissLatency::cpu.inst     62136000                       # number of overall miss ticks (Tick)
system.cpu.icache.overallMissLatency::total     62136000                       # number of overall miss ticks (Tick)
system.cpu.icache.demandAccesses::cpu.inst         3350                       # number of demand (read+write) accesses (Count)
system.cpu.icache.demandAccesses::total          3350                       # number of demand (read+write) accesses (Count)
system.cpu.icache.overallAccesses::cpu.inst         3350                       # number of overall (read+write) accesses (Count)
system.cpu.icache.overallAccesses::total         3350                       # number of overall (read+write) accesses (Count)
system.cpu.icache.demandMissRate::cpu.inst     0.189851                       # miss rate for demand accesses (Ratio)
system.cpu.icache.demandMissRate::total      0.189851                       # miss rate for demand accesses (Ratio)
system.cpu.icache.overallMissRate::cpu.inst     0.189851                       # miss rate for overall accesses (Ratio)
system.cpu.icache.overallMissRate::total     0.189851                       # miss rate for overall accesses (Ratio)
system.cpu.icache.demandAvgMissLatency::cpu.inst 97698.113208                       # average overall miss latency ((Cycle/Count))
system.cpu.icache.demandAvgMissLatency::total 97698.113208                       # average overall miss latency ((Cycle/Count))
system.cpu.icache.overallAvgMissLatency::cpu.inst 97698.113208                       # average overall miss latency ((Cycle/Count))
system.cpu.icache.overallAvgMissLatency::total 97698.113208                       # average overall miss latency ((Cycle/Count))
system.cpu.icache.blockedCycles::no_mshrs           72                       # number of cycles access was blocked (Cycle)
system.cpu.icache.blockedCycles::no_targets            0                       # number of cycles access was blocked (Cycle)
system.cpu.icache.blockedCauses::no_mshrs            3                       # number of times access was blocked (Count)
system.cpu.icache.blockedCauses::no_targets            0                       # number of times access was blocked (Count)
system.cpu.icache.avgBlocked::no_mshrs             24                       # average number of cycles each access was blocked ((Cycle/Count))
system.cpu.icache.avgBlocked::no_targets          nan                       # average number of cycles each access was blocked ((Cycle/Count))
system.cpu.icache.demandMshrHits::cpu.inst          154                       # number of demand (read+write) MSHR hits (Count)
system.cpu.icache.demandMshrHits::total           154                       # number of demand (read+write) MSHR hits (Count)
system.cpu.icache.overallMshrHits::cpu.inst          154                       # number of overall MSHR hits (Count)
system.cpu.icache.overallMshrHits::total          154                       # number of overall MSHR hits (Count)
system.cpu.icache.demandMshrMisses::cpu.inst          482                       # number of demand (read+write) MSHR misses (Count)
system.cpu.icache.demandMshrMisses::total          482                       # number of demand (read+write) MSHR misses (Count)
system.cpu.icache.overallMshrMisses::cpu.inst          482                       # number of overall MSHR misses (Count)
system.cpu.icache.overallMshrMisses::total          482                       # number of overall MSHR misses (Count)
system.cpu.icache.demandMshrMissLatency::cpu.inst     49216000                       # number of demand (read+write) MSHR miss ticks (Tick)
system.cpu.icache.demandMshrMissLatency::total     49216000                       # number of demand (read+write) MSHR miss ticks (Tick)
system.cpu.icache.overallMshrMissLatency::cpu.inst     49216000                       # number of overall MSHR miss ticks (Tick)
system.cpu.icache.overallMshrMissLatency::total     49216000                       # number of overall MSHR miss ticks (Tick)
system.cpu.icache.demandMshrMissRate::cpu.inst     0.143881                       # mshr miss ratio for demand accesses (Ratio)
system.cpu.icache.demandMshrMissRate::total     0.143881                       # mshr miss ratio for demand accesses (Ratio)
system.cpu.icache.overallMshrMissRate::cpu.inst     0.143881                       # mshr miss ratio for overall accesses (Ratio)
system.cpu.icache.overallMshrMissRate::total     0.143881                       # mshr miss ratio for overall accesses (Ratio)
system.cpu.icache.demandAvgMshrMissLatency::cpu.inst 102107.883817                       # average overall mshr miss latency ((Cycle/Count))
system.cpu.icache.demandAvgMshrMissLatency::total 102107.883817                       # average overall mshr miss latency ((Cycle/Count))
system.cpu.icache.overallAvgMshrMissLatency::cpu.inst 102107.883817                       # average overall mshr miss latency ((Cycle/Count))
system.cpu.icache.overallAvgMshrMissLatency::total 102107.883817                       # average overall mshr miss latency ((Cycle/Count))
system.cpu.icache.replacements                    237                       # number of replacements (Count)
system.cpu.icache.ReadReq.hits::cpu.inst         2714                       # number of ReadReq hits (Count)
system.cpu.icache.ReadReq.hits::total            2714                       # number of ReadReq hits (Count)
system.cpu.icache.ReadReq.misses::cpu.inst          636                       # number of ReadReq misses (Count)
system.cpu.icache.ReadReq.misses::total           636                       # number of ReadReq misses (Count)
system.cpu.icache.ReadReq.missLatency::cpu.inst     62136000                       # number of ReadReq miss ticks (Tick)
system.cpu.icache.ReadReq.missLatency::total     62136000                       # number of ReadReq miss ticks (Tick)
system.cpu.icache.ReadReq.accesses::cpu.inst         3350                       # number of ReadReq accesses(hits+misses) (Count)
system.cpu.icache.ReadReq.accesses::total         3350                       # number of ReadReq accesses(hits+misses) (Count)
system.cpu.icache.ReadReq.missRate::cpu.inst     0.189851                       # miss rate for ReadReq accesses (Ratio)
system.cpu.icache.ReadReq.missRate::total     0.189851                       # miss rate for ReadReq accesses (Ratio)
system.cpu.icache.ReadReq.avgMissLatency::cpu.inst 97698.113208                       # average ReadReq miss latency ((Tick/Count))
system.cpu.icache.ReadReq.avgMissLatency::total 97698.113208                       # average ReadReq miss latency ((Tick/Count))
system.cpu.icache.ReadReq.mshrHits::cpu.inst          154                       # number of ReadReq MSHR hits (Count)
system.cpu.icache.ReadReq.mshrHits::total          154                       # number of ReadReq MSHR hits (Count)
system.cpu.icache.ReadReq.mshrMisses::cpu.inst          482                       # number of ReadReq MSHR misses (Count)
system.cpu.icache.ReadReq.mshrMisses::total          482                       # number of ReadReq MSHR misses (Count)
system.cpu.icache.ReadReq.mshrMissLatency::cpu.inst     49216000                       # number of ReadReq MSHR miss ticks (Tick)
system.cpu.icache.ReadReq.mshrMissLatency::total     49216000                       # number of ReadReq MSHR miss ticks (Tick)
system.cpu.icache.ReadReq.mshrMissRate::cpu.inst     0.143881                       # mshr miss rate for ReadReq accesses (Ratio)
system.cpu.icache.ReadReq.mshrMissRate::total     0.143881                       # mshr miss rate for ReadReq accesses (Ratio)
system.cpu.icache.ReadReq.avgMshrMissLatency::cpu.inst 102107.883817                       # average ReadReq mshr miss latency ((Tick/Count))
system.cpu.icache.ReadReq.avgMshrMissLatency::total 102107.883817                       # average ReadReq mshr miss latency ((Tick/Count))
system.cpu.icache.power_state.pwrStateResidencyTicks::UNDEFINED   1389783000                       # Cumulative time (in ticks) in various power states (Tick)
system.cpu.icache.tags.tagsInUse           240.002453                       # Average ticks per tags in use ((Tick/Count))
system.cpu.icache.tags.totalRefs                 3196                       # Total number of references to valid blocks. (Count)
system.cpu.icache.tags.sampledRefs                482                       # Sample count of references to valid blocks. (Count)
system.cpu.icache.tags.avgRefs               6.630705                       # Average number of references to valid blocks. ((Count/Count))
system.cpu.icache.tags.warmupTick              107000                       # The tick when the warmup percentage was hit. (Tick)
system.cpu.icache.tags.occupancies::cpu.inst   240.002453                       # Average occupied blocks per tick, per requestor ((Count/Tick))
system.cpu.icache.tags.avgOccs::cpu.inst     0.937510                       # Average percentage of cache occupancy ((Ratio/Tick))
system.cpu.icache.tags.avgOccs::total        0.937510                       # Average percentage of cache occupancy ((Ratio/Tick))
system.cpu.icache.tags.occupanciesTaskId::1024          245                       # Occupied blocks per task id (Count)
system.cpu.icache.tags.ageTaskId_1024::0           37                       # Occupied blocks per task id, per block age (Count)
system.cpu.icache.tags.ageTaskId_1024::3          208                       # Occupied blocks per task id, per block age (Count)
system.cpu.icache.tags.ratioOccsTaskId::1024     0.957031                       # Ratio of occupied blocks and all blocks, per task id (Ratio)
system.cpu.icache.tags.tagAccesses               7182                       # Number of tag accesses (Count)
system.cpu.icache.tags.dataAccesses              7182                       # Number of data accesses (Count)
system.cpu.icache.tags.power_state.pwrStateResidencyTicks::UNDEFINED   1389783000                       # Cumulative time (in ticks) in various power states (Tick)
system.cpu.interrupts.clk_domain.clock          16000                       # Clock period in ticks (Tick)
system.cpu.lsq0.forwLoads                         177                       # Number of loads that had data forwarded from stores (Count)
system.cpu.lsq0.squashedLoads                  222953                       # Number of loads squashed (Count)
system.cpu.lsq0.ignoredResponses                    2                       # Number of memory responses ignored because the instruction is squashed (Count)
system.cpu.lsq0.memOrderViolation                  11                       # Number of memory ordering violations (Count)
system.cpu.lsq0.squashedStores                   1006                       # Number of stores squashed (Count)
system.cpu.lsq0.rescheduledLoads                    1                       # Number of loads that were rescheduled (Count)
system.cpu.lsq0.blockedByCache                     11                       # Number of times an access to memory failed due to the cache being blocked (Count)
system.cpu.lsq0.loadToUse::samples             132622                       # Distribution of cycle latency between the first time a load is issued and its completion (Unspecified)
system.cpu.lsq0.loadToUse::mean              3.420797                       # Distribution of cycle latency between the first time a load is issued and its completion (Unspecified)
system.cpu.lsq0.loadToUse::stdev             6.585377                       # Distribution of cycle latency between the first time a load is issued and its completion (Unspecified)
system.cpu.lsq0.loadToUse::0-9                 131982     99.52%     99.52% # Distribution of cycle latency between the first time a load is issued and its completion (Unspecified)
system.cpu.lsq0.loadToUse::10-19                    4      0.00%     99.52% # Distribution of cycle latency between the first time a load is issued and its completion (Unspecified)
system.cpu.lsq0.loadToUse::20-29                    3      0.00%     99.52% # Distribution of cycle latency between the first time a load is issued and its completion (Unspecified)
system.cpu.lsq0.loadToUse::40-49                   16      0.01%     99.53% # Distribution of cycle latency between the first time a load is issued and its completion (Unspecified)
system.cpu.lsq0.loadToUse::50-59                   17      0.01%     99.55% # Distribution of cycle latency between the first time a load is issued and its completion (Unspecified)
system.cpu.lsq0.loadToUse::60-69                   92      0.07%     99.62% # Distribution of cycle latency between the first time a load is issued and its completion (Unspecified)
system.cpu.lsq0.loadToUse::70-79                  134      0.10%     99.72% # Distribution of cycle latency between the first time a load is issued and its completion (Unspecified)
system.cpu.lsq0.loadToUse::80-89                   94      0.07%     99.79% # Distribution of cycle latency between the first time a load is issued and its completion (Unspecified)
system.cpu.lsq0.loadToUse::90-99                  183      0.14%     99.93% # Distribution of cycle latency between the first time a load is issued and its completion (Unspecified)
system.cpu.lsq0.loadToUse::100-109                 15      0.01%     99.94% # Distribution of cycle latency between the first time a load is issued and its completion (Unspecified)
system.cpu.lsq0.loadToUse::110-119                 28      0.02%     99.96% # Distribution of cycle latency between the first time a load is issued and its completion (Unspecified)
system.cpu.lsq0.loadToUse::120-129                 25      0.02%     99.98% # Distribution of cycle latency between the first time a load is issued and its completion (Unspecified)
system.cpu.lsq0.loadToUse::130-139                  2      0.00%     99.98% # Distribution of cycle latency between the first time a load is issued and its completion (Unspecified)
system.cpu.lsq0.loadToUse::140-149                  1      0.00%     99.98% # Distribution of cycle latency between the first time a load is issued and its completion (Unspecified)
system.cpu.lsq0.loadToUse::150-159                  1      0.00%     99.98% # Distribution of cycle latency between the first time a load is issued and its completion (Unspecified)
system.cpu.lsq0.loadToUse::160-169                  2      0.00%     99.98% # Distribution of cycle latency between the first time a load is issued and its completion (Unspecified)
system.cpu.lsq0.loadToUse::170-179                  5      0.00%     99.99% # Distribution of cycle latency between the first time a load is issued and its completion (Unspecified)
system.cpu.lsq0.loadToUse::180-189                  3      0.00%     99.99% # Distribution of cycle latency between the first time a load is issued and its completion (Unspecified)
system.cpu.lsq0.loadToUse::200-209                  3      0.00%     99.99% # Distribution of cycle latency between the first time a load is issued and its completion (Unspecified)
system.cpu.lsq0.loadToUse::210-219                  4      0.00%     99.99% # Distribution of cycle latency between the first time a load is issued and its completion (Unspecified)
system.cpu.lsq0.loadToUse::overflows                8      0.01%    100.00% # Distribution of cycle latency between the first time a load is issued and its completion (Unspecified)
system.cpu.lsq0.loadToUse::min_value                2                       # Distribution of cycle latency between the first time a load is issued and its completion (Unspecified)
system.cpu.lsq0.loadToUse::max_value              383                       # Distribution of cycle latency between the first time a load is issued and its completion (Unspecified)
system.cpu.lsq0.loadToUse::total               132622                       # Distribution of cycle latency between the first time a load is issued and its completion (Unspecified)
system.cpu.mmu.dtb.rdAccesses                  256712                       # TLB accesses on read requests (Count)
system.cpu.mmu.dtb.wrAccesses                    2180                       # TLB accesses on write requests (Count)
system.cpu.mmu.dtb.rdMisses                        80                       # TLB misses on read requests (Count)
system.cpu.mmu.dtb.wrMisses                        25                       # TLB misses on write requests (Count)
system.cpu.mmu.dtb.walker.power_state.pwrStateResidencyTicks::UNDEFINED   1389783000                       # Cumulative time (in ticks) in various power states (Tick)
system.cpu.mmu.itb.rdAccesses                       0                       # TLB accesses on read requests (Count)
system.cpu.mmu.itb.wrAccesses                    3476                       # TLB accesses on write requests (Count)
system.cpu.mmu.itb.rdMisses                         0                       # TLB misses on read requests (Count)
system.cpu.mmu.itb.wrMisses                       168                       # TLB misses on write requests (Count)
system.cpu.mmu.itb.walker.power_state.pwrStateResidencyTicks::UNDEFINED   1389783000                       # Cumulative time (in ticks) in various power states (Tick)
system.cpu.power_state.pwrStateResidencyTicks::ON   1389783000                       # Cumulative time (in ticks) in various power states (Tick)
system.cpu.rename.squashCycles                  63182                       # Number of cycles rename is squashing (Cycle)
system.cpu.rename.idleCycles                   204157                       # Number of cycles rename is idle (Cycle)
system.cpu.rename.blockCycles                  349292                       # Number of cycles rename is blocking (Cycle)
system.cpu.rename.serializeStallCycles             35                       # count of cycles rename stalled for serializing inst (Cycle)
system.cpu.rename.runCycles                    682475                       # Number of cycles rename is running (Cycle)
[...]
system.mem_ctrl.requestorReadAvgLat::cpu.data     29021.26                       # Per-requestor read average memory access latency ((Tick/Count))
system.mem_ctrl.dram.bytesRead::cpu.inst        30848                       # Number of bytes read from this memory (Byte)
system.mem_ctrl.dram.bytesRead::cpu.data        31616                       # Number of bytes read from this memory (Byte)
system.mem_ctrl.dram.bytesRead::total           62464                       # Number of bytes read from this memory (Byte)
system.mem_ctrl.dram.bytesInstRead::cpu.inst        30848                       # Number of instructions bytes read from this memory (Byte)
system.mem_ctrl.dram.bytesInstRead::total        30848                       # Number of instructions bytes read from this memory (Byte)
system.mem_ctrl.dram.numReads::cpu.inst           482                       # Number of read requests responded to by this memory (Count)
system.mem_ctrl.dram.numReads::cpu.data           494                       # Number of read requests responded to by this memory (Count)
system.mem_ctrl.dram.numReads::total              976                       # Number of read requests responded to by this memory (Count)
system.mem_ctrl.dram.bwRead::cpu.inst        22196271                       # Total read bandwidth from this memory ((Byte/Second))
system.mem_ctrl.dram.bwRead::cpu.data        22748875                       # Total read bandwidth from this memory ((Byte/Second))
system.mem_ctrl.dram.bwRead::total           44945146                       # Total read bandwidth from this memory ((Byte/Second))
system.mem_ctrl.dram.bwInstRead::cpu.inst     22196271                       # Instruction read bandwidth from this memory ((Byte/Second))
system.mem_ctrl.dram.bwInstRead::total       22196271                       # Instruction read bandwidth from this memory ((Byte/Second))
system.mem_ctrl.dram.bwTotal::cpu.inst       22196271                       # Total bandwidth to/from this memory ((Byte/Second))
system.mem_ctrl.dram.bwTotal::cpu.data       22748875                       # Total bandwidth to/from this memory ((Byte/Second))
system.mem_ctrl.dram.bwTotal::total          44945146                       # Total bandwidth to/from this memory ((Byte/Second))
system.mem_ctrl.dram.readBursts                   976                       # Number of DRAM read bursts (Count)
system.mem_ctrl.dram.writeBursts                    0                       # Number of DRAM write bursts (Count)
system.mem_ctrl.dram.perBankRdBursts::0            36                       # Per bank write bursts (Count)
system.mem_ctrl.dram.perBankRdBursts::1            71                       # Per bank write bursts (Count)
system.mem_ctrl.dram.perBankRdBursts::2           124                       # Per bank write bursts (Count)
system.mem_ctrl.dram.perBankRdBursts::3           201                       # Per bank write bursts (Count)
system.mem_ctrl.dram.perBankRdBursts::4           174                       # Per bank write bursts (Count)
system.mem_ctrl.dram.perBankRdBursts::5            38                       # Per bank write bursts (Count)
system.mem_ctrl.dram.perBankRdBursts::6            40                       # Per bank write bursts (Count)
system.mem_ctrl.dram.perBankRdBursts::7            28                       # Per bank write bursts (Count)
system.mem_ctrl.dram.perBankRdBursts::8            42                       # Per bank write bursts (Count)
system.mem_ctrl.dram.perBankRdBursts::9            81                       # Per bank write bursts (Count)
system.mem_ctrl.dram.perBankRdBursts::10           34                       # Per bank write bursts (Count)
system.mem_ctrl.dram.perBankRdBursts::11           22                       # Per bank write bursts (Count)
system.mem_ctrl.dram.perBankRdBursts::12           11                       # Per bank write bursts (Count)
system.mem_ctrl.dram.perBankRdBursts::13            9                       # Per bank write bursts (Count)
system.mem_ctrl.dram.perBankRdBursts::14           16                       # Per bank write bursts (Count)
system.mem_ctrl.dram.perBankRdBursts::15           49                       # Per bank write bursts (Count)
system.mem_ctrl.dram.perBankWrBursts::0             0                       # Per bank write bursts (Count)
system.mem_ctrl.dram.perBankWrBursts::1             0                       # Per bank write bursts (Count)
system.mem_ctrl.dram.perBankWrBursts::2             0                       # Per bank write bursts (Count)
system.mem_ctrl.dram.perBankWrBursts::3             0                       # Per bank write bursts (Count)
system.mem_ctrl.dram.perBankWrBursts::4             0                       # Per bank write bursts (Count)
system.mem_ctrl.dram.perBankWrBursts::5             0                       # Per bank write bursts (Count)
system.mem_ctrl.dram.perBankWrBursts::6             0                       # Per bank write bursts (Count)
system.mem_ctrl.dram.perBankWrBursts::7             0                       # Per bank write bursts (Count)
system.mem_ctrl.dram.perBankWrBursts::8             0                       # Per bank write bursts (Count)
system.mem_ctrl.dram.perBankWrBursts::9             0                       # Per bank write bursts (Count)
system.mem_ctrl.dram.perBankWrBursts::10            0                       # Per bank write bursts (Count)
system.mem_ctrl.dram.perBankWrBursts::11            0                       # Per bank write bursts (Count)
system.mem_ctrl.dram.perBankWrBursts::12            0                       # Per bank write bursts (Count)
system.mem_ctrl.dram.perBankWrBursts::13            0                       # Per bank write bursts (Count)
system.mem_ctrl.dram.perBankWrBursts::14            0                       # Per bank write bursts (Count)
system.mem_ctrl.dram.perBankWrBursts::15            0                       # Per bank write bursts (Count)
system.mem_ctrl.dram.totQLat                  9429500                       # Total ticks spent queuing (Tick)
system.mem_ctrl.dram.totBusLat                4880000                       # Total ticks spent in databus transfers (Tick)
system.mem_ctrl.dram.totMemAccLat            27729500                       # Total ticks spent from burst creation until serviced by the DRAM (Tick)
system.mem_ctrl.dram.avgQLat                  9661.37                       # Average queueing delay per DRAM burst ((Tick/Count))
system.mem_ctrl.dram.avgBusLat                5000.00                       # Average bus latency per DRAM burst ((Tick/Count))
system.mem_ctrl.dram.avgMemAccLat            28411.37                       # Average memory access latency per DRAM burst ((Tick/Count))
system.mem_ctrl.dram.readRowHits                  790                       # Number of row buffer hits during reads (Count)
system.mem_ctrl.dram.writeRowHits                   0                       # Number of row buffer hits during writes (Count)
system.mem_ctrl.dram.readRowHitRate             80.94                       # Row buffer hit rate for reads (Ratio)
system.mem_ctrl.dram.writeRowHitRate              nan                       # Row buffer hit rate for writes (Ratio)
system.mem_ctrl.dram.bytesPerActivate::samples          175                       # Bytes accessed per row activation (Byte)
system.mem_ctrl.dram.bytesPerActivate::mean   343.405714                       # Bytes accessed per row activation (Byte)
system.mem_ctrl.dram.bytesPerActivate::gmean   221.725997                       # Bytes accessed per row activation (Byte)
system.mem_ctrl.dram.bytesPerActivate::stdev   300.836556                       # Bytes accessed per row activation (Byte)
system.mem_ctrl.dram.bytesPerActivate::0-127           48     27.43%     27.43% # Bytes accessed per row activation (Byte)
system.mem_ctrl.dram.bytesPerActivate::128-255           43     24.57%     52.00% # Bytes accessed per row activation (Byte)
system.mem_ctrl.dram.bytesPerActivate::256-383           18     10.29%     62.29% # Bytes accessed per row activation (Byte)
system.mem_ctrl.dram.bytesPerActivate::384-511           10      5.71%     68.00% # Bytes accessed per row activation (Byte)
system.mem_ctrl.dram.bytesPerActivate::512-639           10      5.71%     73.71% # Bytes accessed per row activation (Byte)
system.mem_ctrl.dram.bytesPerActivate::640-767           28     16.00%     89.71% # Bytes accessed per row activation (Byte)
system.mem_ctrl.dram.bytesPerActivate::768-895            3      1.71%     91.43% # Bytes accessed per row activation (Byte)
system.mem_ctrl.dram.bytesPerActivate::896-1023            3      1.71%     93.14% # Bytes accessed per row activation (Byte)
system.mem_ctrl.dram.bytesPerActivate::1024-1151           12      6.86%    100.00% # Bytes accessed per row activation (Byte)
system.mem_ctrl.dram.bytesPerActivate::total          175                       # Bytes accessed per row activation (Byte)
system.mem_ctrl.dram.bytesRead                  62464                       # Total number of bytes read from DRAM (Byte)
system.mem_ctrl.dram.bytesWritten                   0                       # Total number of bytes written to DRAM (Byte)
system.mem_ctrl.dram.avgRdBW                44.945146                       # Average DRAM read bandwidth in MiBytes/s ((Byte/Second))
system.mem_ctrl.dram.avgWrBW                        0                       # Average DRAM write bandwidth in MiBytes/s ((Byte/Second))
system.mem_ctrl.dram.peakBW                  12800.00                       # Theoretical peak bandwidth in MiByte/s ((Byte/Second))
system.mem_ctrl.dram.busUtil                     0.35                       # Data bus utilization in percentage (Ratio)
system.mem_ctrl.dram.busUtilRead                 0.35                       # Data bus utilization in percentage for reads (Ratio)
system.mem_ctrl.dram.busUtilWrite                0.00                       # Data bus utilization in percentage for writes (Ratio)
system.mem_ctrl.dram.pageHitRate                80.94                       # Row buffer hit rate, read and write combined (Ratio)
system.mem_ctrl.dram.power_state.pwrStateResidencyTicks::UNDEFINED   1389783000                       # Cumulative time (in ticks) in various power states (Tick)
system.mem_ctrl.dram.rank0.actEnergy           949620                       # Energy for activate commands per rank (pJ) (Joule)
system.mem_ctrl.dram.rank0.preEnergy           485760                       # Energy for precharge commands per rank (pJ) (Joule)
system.mem_ctrl.dram.rank0.readEnergy         5083680                       # Energy for read commands per rank (pJ) (Joule)
system.mem_ctrl.dram.rank0.writeEnergy              0                       # Energy for write commands per rank (pJ) (Joule)
system.mem_ctrl.dram.rank0.refreshEnergy 109405920.000000                       # Energy for refresh commands per rank (pJ) (Joule)
system.mem_ctrl.dram.rank0.actBackEnergy    129839730                       # Energy for active background per rank (pJ) (Joule)
system.mem_ctrl.dram.rank0.preBackEnergy    424338240                       # Energy for precharge background per rank (pJ) (Joule)
system.mem_ctrl.dram.rank0.actPowerDownEnergy            0                       # Energy for active power-down per rank (pJ) (Joule)
system.mem_ctrl.dram.rank0.prePowerDownEnergy            0                       # Energy for precharge power-down per rank (pJ) (Joule)
system.mem_ctrl.dram.rank0.selfRefreshEnergy            0                       # Energy for self refresh per rank (pJ) (Joule)
system.mem_ctrl.dram.rank0.totalEnergy      670102950                       # Total energy per rank (pJ) (Joule)
system.mem_ctrl.dram.rank0.averagePower    482.163726                       # Core power per rank (mW) (Watt)
system.mem_ctrl.dram.rank0.totalIdleTime            0                       # Total Idle time Per DRAM Rank (Tick)
system.mem_ctrl.dram.rank0.pwrStateTime::IDLE   1102140000                       # Time in different power states (Tick)
system.mem_ctrl.dram.rank0.pwrStateTime::REF     46280000                       # Time in different power states (Tick)
system.mem_ctrl.dram.rank0.pwrStateTime::SREF            0                       # Time in different power states (Tick)
system.mem_ctrl.dram.rank0.pwrStateTime::PRE_PDN            0                       # Time in different power states (Tick)
system.mem_ctrl.dram.rank0.pwrStateTime::ACT    241363000                       # Time in different power states (Tick)
system.mem_ctrl.dram.rank0.pwrStateTime::ACT_PDN            0                       # Time in different power states (Tick)
system.mem_ctrl.dram.rank1.actEnergy           378420                       # Energy for activate commands per rank (pJ) (Joule)
system.mem_ctrl.dram.rank1.preEnergy           178365                       # Energy for precharge commands per rank (pJ) (Joule)
system.mem_ctrl.dram.rank1.readEnergy         1884960                       # Energy for read commands per rank (pJ) (Joule)
system.mem_ctrl.dram.rank1.writeEnergy              0                       # Energy for write commands per rank (pJ) (Joule)
system.mem_ctrl.dram.rank1.refreshEnergy 109405920.000000                       # Energy for refresh commands per rank (pJ) (Joule)
system.mem_ctrl.dram.rank1.actBackEnergy     43719000                       # Energy for active background per rank (pJ) (Joule)
system.mem_ctrl.dram.rank1.preBackEnergy    496860960                       # Energy for precharge background per rank (pJ) (Joule)
system.mem_ctrl.dram.rank1.actPowerDownEnergy            0                       # Energy for active power-down per rank (pJ) (Joule)
system.mem_ctrl.dram.rank1.prePowerDownEnergy            0                       # Energy for precharge power-down per rank (pJ) (Joule)
system.mem_ctrl.dram.rank1.selfRefreshEnergy            0                       # Energy for self refresh per rank (pJ) (Joule)
system.mem_ctrl.dram.rank1.totalEnergy      652427625                       # Total energy per rank (pJ) (Joule)
system.mem_ctrl.dram.rank1.averagePower    469.445680                       # Core power per rank (mW) (Watt)
system.mem_ctrl.dram.rank1.totalIdleTime            0                       # Total Idle time Per DRAM Rank (Tick)
system.mem_ctrl.dram.rank1.pwrStateTime::IDLE   1291349250                       # Time in different power states (Tick)
system.mem_ctrl.dram.rank1.pwrStateTime::REF     46280000                       # Time in different power states (Tick)
system.mem_ctrl.dram.rank1.pwrStateTime::SREF            0                       # Time in different power states (Tick)
system.mem_ctrl.dram.rank1.pwrStateTime::PRE_PDN            0                       # Time in different power states (Tick)
system.mem_ctrl.dram.rank1.pwrStateTime::ACT     52153750                       # Time in different power states (Tick)
system.mem_ctrl.dram.rank1.pwrStateTime::ACT_PDN            0                       # Time in different power states (Tick)
system.mem_ctrl.power_state.pwrStateResidencyTicks::UNDEFINED   1389783000                       # Cumulative time (in ticks) in various power states (Tick)
system.membus.transDist::ReadResp                 861                       # Transaction distribution (Count)
system.membus.transDist::CleanEvict               237                       # Transaction distribution (Count)
system.membus.transDist::ReadExReq                115                       # Transaction distribution (Count)
system.membus.transDist::ReadExResp               115                       # Transaction distribution (Count)
system.membus.transDist::ReadCleanReq             861                       # Transaction distribution (Count)
system.membus.pktCount_system.l2cache.mem_side_port::system.mem_ctrl.port         2189                       # Packet count per connected requestor and responder (Count)
system.membus.pktCount_system.l2cache.mem_side_port::total         2189                       # Packet count per connected requestor and responder (Count)
system.membus.pktCount::total                    2189                       # Packet count per connected requestor and responder (Count)
system.membus.pktSize_system.l2cache.mem_side_port::system.mem_ctrl.port        62464                       # Cumulative packet size per connected requestor and responder (Byte)
system.membus.pktSize_system.l2cache.mem_side_port::total        62464                       # Cumulative packet size per connected requestor and responder (Byte)
system.membus.pktSize::total                    62464                       # Cumulative packet size per connected requestor and responder (Byte)
system.membus.snoops                                0                       # Total snoops (Count)
system.membus.snoopTraffic                          0                       # Total snoop traffic (Byte)
system.membus.snoopFanout::samples                976                       # Request fanout histogram (Count)
system.membus.snoopFanout::mean                     0                       # Request fanout histogram (Count)
system.membus.snoopFanout::stdev                    0                       # Request fanout histogram (Count)
system.membus.snoopFanout::underflows               0      0.00%      0.00% # Request fanout histogram (Count)
system.membus.snoopFanout::0                      976    100.00%    100.00% # Request fanout histogram (Count)
system.membus.snoopFanout::1                        0      0.00%    100.00% # Request fanout histogram (Count)
system.membus.snoopFanout::overflows                0      0.00%    100.00% # Request fanout histogram (Count)
system.membus.snoopFanout::min_value                0                       # Request fanout histogram (Count)
system.membus.snoopFanout::max_value                0                       # Request fanout histogram (Count)
system.membus.snoopFanout::total                  976                       # Request fanout histogram (Count)
system.membus.power_state.pwrStateResidencyTicks::UNDEFINED   1389783000                       # Cumulative time (in ticks) in various power states (Tick)
system.membus.reqLayer2.occupancy             1213000                       # Layer occupancy (ticks) (Tick)
system.membus.reqLayer2.utilization               0.0                       # Layer utilization (Ratio)
system.membus.respLayer0.occupancy            5164250                       # Layer occupancy (ticks) (Tick)
system.membus.respLayer0.utilization              0.0                       # Layer utilization (Ratio)
system.membus.snoop_filter.totRequests           1213                       # Total number of requests made to the snoop filter. (Count)
system.membus.snoop_filter.hitSingleRequests          237                       # Number of requests hitting in the snoop filter with a single holder of the requested data. (Count)
system.membus.snoop_filter.hitMultiRequests            0                       # Number of requests hitting in the snoop filter with multiple (>1) holders of the requested data. (Count)
system.membus.snoop_filter.totSnoops                0                       # Total number of snoops made to the snoop filter. (Count)
system.membus.snoop_filter.hitSingleSnoops            0                       # Number of snoops hitting in the snoop filter with a single holder of the requested data. (Count)
system.membus.snoop_filter.hitMultiSnoops            0                       # Number of snoops hitting in the snoop filter with multiple (>1) holders of the requested data. (Count)
system.workload.inst.arm                            0                       # number of arm instructions executed (Count)
system.workload.inst.quiesce                        0                       # number of quiesce instructions executed (Count)

---------- End Simulation Statistics   ----------
