
---------- Begin Simulation Statistics ----------
simSeconds                                   0.000198                       # Number of seconds simulated (Second)
simTicks                                    198461000                       # Number of ticks simulated (Tick)
finalTick                                   198461000                       # Number of ticks from beginning of simulation (restored from checkpoints and never reset) (Tick)
simFreq                                  1000000000000                       # The number of ticks per simulated second ((Tick/Second))
hostSeconds                                      0.64                       # Real time elapsed on the host (Second)
hostTickRate                                311158029                       # The number of ticks simulated per host second (ticks/s) ((Tick/Second))
hostMemory                                     645992                       # Number of bytes of host memory used (Byte)
simInsts                                        94409                       # Number of instructions simulated (Count)
simOps                                         147357                       # Number of ops (including micro ops) simulated (Count)
hostInstRate                                   147995                       # Simulator instruction rate (inst/s) ((Count/Second))
hostOpRate                                     230991                       # Simulator op (including micro ops) rate (op/s) ((Count/Second))
system.clk_domain.clock                          1000                       # Clock period in ticks (Tick)
system.clk_domain.voltage_domain.voltage            1                       # Voltage in Volts (Volt)
system.cpu.numCycles                           198462                       # Number of cpu cycles simulated (Cycle)
system.cpu.numWorkItemsStarted                      0                       # Number of work items this cpu started (Count)
system.cpu.numWorkItemsCompleted                    0                       # Number of work items this cpu completed (Count)
system.cpu.instsAdded                          159921                       # Number of instructions added to the IQ (excludes non-spec) (Count)
system.cpu.nonSpecInstsAdded                        1                       # Number of non-speculative instructions added to the IQ (Count)
system.cpu.instsIssued                         156999                       # Number of instructions issued (Count)
system.cpu.squashedInstsIssued                     41                       # Number of squashed instructions issued (Count)
system.cpu.squashedInstsExamined                12551                       # Number of squashed instructions iterated over during squash; mainly for profiling (Count)
system.cpu.squashedOperandsExamined             14339                       # Number of squashed operands that are examined and possibly removed from graph (Count)
system.cpu.squashedNonSpecRemoved                   1                       # Number of squashed non-spec instructions that were removed (Count)
system.cpu.numIssuedDist::samples              177437                       # Number of insts issued each cycle (Count)
system.cpu.numIssuedDist::mean               0.884815                       # Number of insts issued each cycle (Count)
system.cpu.numIssuedDist::stdev              1.351741                       # Number of insts issued each cycle (Count)
system.cpu.numIssuedDist::underflows                0      0.00%      0.00% # Number of insts issued each cycle (Count)
system.cpu.numIssuedDist::0                    101294     57.09%     57.09% # Number of insts issued each cycle (Count)
system.cpu.numIssuedDist::1                     35010     19.73%     76.82% # Number of insts issued each cycle (Count)
system.cpu.numIssuedDist::2                     19701     11.10%     87.92% # Number of insts issued each cycle (Count)
system.cpu.numIssuedDist::3                     12153      6.85%     94.77% # Number of insts issued each cycle (Count)
system.cpu.numIssuedDist::4                      4061      2.29%     97.06% # Number of insts issued each cycle (Count)
system.cpu.numIssuedDist::5                      2529      1.43%     98.48% # Number of insts issued each cycle (Count)
system.cpu.numIssuedDist::6                      1867      1.05%     99.54% # Number of insts issued each cycle (Count)
system.cpu.numIssuedDist::7                       539      0.30%     99.84% # Number of insts issued each cycle (Count)
system.cpu.numIssuedDist::8                       283      0.16%    100.00% # Number of insts issued each cycle (Count)
system.cpu.numIssuedDist::overflows                 0      0.00%    100.00% # Number of insts issued each cycle (Count)
system.cpu.numIssuedDist::min_value                 0                       # Number of insts issued each cycle (Count)
system.cpu.numIssuedDist::max_value                 8                       # Number of insts issued each cycle (Count)
system.cpu.numIssuedDist::total                177437                       # Number of insts issued each cycle (Count)
system.cpu.statFuBusy::No_OpClass                   0      0.00%      0.00% # attempts to use FU when none available (Count)
system.cpu.statFuBusy::IntAlu                     238     76.77%     76.77% # attempts to use FU when none available (Count)
system.cpu.statFuBusy::IntMult                      0      0.00%     76.77% # attempts to use FU when none available (Count)
system.cpu.statFuBusy::IntDiv                       0      0.00%     76.77% # attempts to use FU when none available (Count)
system.cpu.statFuBusy::FloatAdd                     0      0.00%     76.77% # attempts to use FU when none available (Count)
system.cpu.statFuBusy::FloatCmp                     0      0.00%     76.77% # attempts to use FU when none available (Count)
system.cpu.statFuBusy::FloatCvt                     0      0.00%     76.77% # attempts to use FU when none available (Count)
system.cpu.statFuBusy::FloatMult                    0      0.00%     76.77% # attempts to use FU when none available (Count)
system.cpu.statFuBusy::FloatMultAcc                 0      0.00%     76.77% # attempts to use FU when none available (Count)
system.cpu.statFuBusy::FloatDiv                     0      0.00%     76.77% # attempts to use FU when none available (Count)
system.cpu.statFuBusy::FloatMisc                    0      0.00%     76.77% # attempts to use FU when none available (Count)
system.cpu.statFuBusy::FloatSqrt                    0      0.00%     76.77% # attempts to use FU when none available (Count)
system.cpu.statFuBusy::SimdAdd                      0      0.00%     76.77% # attempts to use FU when none available (Count)
system.cpu.statFuBusy::SimdAddAcc                   0      0.00%     76.77% # attempts to use FU when none available (Count)
system.cpu.statFuBusy::SimdAlu                     11      3.55%     80.32% # attempts to use FU when none available (Count)
system.cpu.statFuBusy::SimdCmp                      0      0.00%     80.32% # attempts to use FU when none available (Count)
system.cpu.statFuBusy::SimdCvt                      1      0.32%     80.65% # attempts to use FU when none available (Count)
system.cpu.statFuBusy::SimdMisc                     2      0.65%     81.29% # attempts to use FU when none available (Count)
system.cpu.statFuBusy::SimdMult                     0      0.00%     81.29% # attempts to use FU when none available (Count)
system.cpu.statFuBusy::SimdMultAcc                  0      0.00%     81.29% # attempts to use FU when none available (Count)
system.cpu.statFuBusy::SimdShift                    0      0.00%     81.29% # attempts to use FU when none available (Count)
system.cpu.statFuBusy::SimdShiftAcc                 0      0.00%     81.29% # attempts to use FU when none available (Count)
system.cpu.statFuBusy::SimdDiv                      0      0.00%     81.29% # attempts to use FU when none available (Count)
system.cpu.statFuBusy::SimdSqrt                     0      0.00%     81.29% # attempts to use FU when none available (Count)
system.cpu.statFuBusy::SimdFloatAdd                 0      0.00%     81.29% # attempts to use FU when none available (Count)
system.cpu.statFuBusy::SimdFloatAlu                 0      0.00%     81.29% # attempts to use FU when none available (Count)
system.cpu.statFuBusy::SimdFloatCmp                 0      0.00%     81.29% # attempts to use FU when none available (Count)
system.cpu.statFuBusy::SimdFloatCvt                 0      0.00%     81.29% # attempts to use FU when none available (Count)
system.cpu.statFuBusy::SimdFloatDiv                 0      0.00%     81.29% # attempts to use FU when none available (Count)
system.cpu.statFuBusy::SimdFloatMisc                0      0.00%     81.29% # attempts to use FU when none available (Count)
system.cpu.statFuBusy::SimdFloatMult                0      0.00%     81.29% # attempts to use FU when none available (Count)
system.cpu.statFuBusy::SimdFloatMultAcc             0      0.00%     81.29% # attempts to use FU when none available (Count)
system.cpu.statFuBusy::SimdFloatSqrt                0      0.00%     81.29% # attempts to use FU when none available (Count)
system.cpu.statFuBusy::SimdReduceAdd                0      0.00%     81.29% # attempts to use FU when none available (Count)
system.cpu.statFuBusy::SimdReduceAlu                0      0.00%     81.29% # attempts to use FU when none available (Count)
system.cpu.statFuBusy::SimdReduceCmp                0      0.00%     81.29% # attempts to use FU when none available (Count)
system.cpu.statFuBusy::SimdFloatReduceAdd            0      0.00%     81.29% # attempts to use FU when none available (Count)
system.cpu.statFuBusy::SimdFloatReduceCmp            0      0.00%     81.29% # attempts to use FU when none available (Count)
system.cpu.statFuBusy::SimdAes                      0      0.00%     81.29% # attempts to use FU when none available (Count)
system.cpu.statFuBusy::SimdAesMix                   0      0.00%     81.29% # attempts to use FU when none available (Count)
system.cpu.statFuBusy::SimdSha1Hash                 0      0.00%     81.29% # attempts to use FU when none available (Count)
system.cpu.statFuBusy::SimdSha1Hash2                0      0.00%     81.29% # attempts to use FU when none available (Count)
system.cpu.statFuBusy::SimdSha256Hash               0      0.00%     81.29% # attempts to use FU when none available (Count)
system.cpu.statFuBusy::SimdSha256Hash2              0      0.00%     81.29% # attempts to use FU when none available (Count)
system.cpu.statFuBusy::SimdShaSigma2                0      0.00%     81.29% # attempts to use FU when none available (Count)
system.cpu.statFuBusy::SimdShaSigma3                0      0.00%     81.29% # attempts to use FU when none available (Count)
system.cpu.statFuBusy::SimdPredAlu                  0      0.00%     81.29% # attempts to use FU when none available (Count)
system.cpu.statFuBusy::MemRead                     26      8.39%     89.68% # attempts to use FU when none available (Count)
system.cpu.statFuBusy::MemWrite                    19      6.13%     95.81% # attempts to use FU when none available (Count)
system.cpu.statFuBusy::FloatMemRead                 6      1.94%     97.74% # attempts to use FU when none available (Count)
system.cpu.statFuBusy::FloatMemWrite                7      2.26%    100.00% # attempts to use FU when none available (Count)
system.cpu.statFuBusy::IprAccess                    0      0.00%    100.00% # attempts to use FU when none available (Count)
system.cpu.statFuBusy::InstPrefetch                 0      0.00%    100.00% # attempts to use FU when none available (Count)
system.cpu.statIssuedInstType_0::No_OpClass          651      0.41%      0.41% # Number of instructions issued per FU type, per thread (Count)
system.cpu.statIssuedInstType_0::IntAlu        142416     90.71%     91.13% # Number of instructions issued per FU type, per thread (Count)
system.cpu.statIssuedInstType_0::IntMult            6      0.00%     91.13% # Number of instructions issued per FU type, per thread (Count)
system.cpu.statIssuedInstType_0::IntDiv            29      0.02%     91.15% # Number of instructions issued per FU type, per thread (Count)
system.cpu.statIssuedInstType_0::FloatAdd          136      0.09%     91.23% # Number of instructions issued per FU type, per thread (Count)
system.cpu.statIssuedInstType_0::FloatCmp            0      0.00%     91.23% # Number of instructions issued per FU type, per thread (Count)
system.cpu.statIssuedInstType_0::FloatCvt            0      0.00%     91.23% # Number of instructions issued per FU type, per thread (Count)
system.cpu.statIssuedInstType_0::FloatMult            0      0.00%     91.23% # Number of instructions issued per FU type, per thread (Count)
system.cpu.statIssuedInstType_0::FloatMultAcc            0      0.00%     91.23% # Number of instructions issued per FU type, per thread (Count)
system.cpu.statIssuedInstType_0::FloatDiv            0      0.00%     91.23% # Number of instructions issued per FU type, per thread (Count)
system.cpu.statIssuedInstType_0::FloatMisc            0      0.00%     91.23% # Number of instructions issued per FU type, per thread (Count)
system.cpu.statIssuedInstType_0::FloatSqrt            0      0.00%     91.23% # Number of instructions issued per FU type, per thread (Count)
system.cpu.statIssuedInstType_0::SimdAdd            0      0.00%     91.23% # Number of instructions issued per FU type, per thread (Count)
system.cpu.statIssuedInstType_0::SimdAddAcc            0      0.00%     91.23% # Number of instructions issued per FU type, per thread (Count)
system.cpu.statIssuedInstType_0::SimdAlu          156      0.10%     91.33% # Number of instructions issued per FU type, per thread (Count)
system.cpu.statIssuedInstType_0::SimdCmp            0      0.00%     91.33% # Number of instructions issued per FU type, per thread (Count)
system.cpu.statIssuedInstType_0::SimdCvt           48      0.03%     91.36% # Number of instructions issued per FU type, per thread (Count)
system.cpu.statIssuedInstType_0::SimdMisc          218      0.14%     91.50% # Number of instructions issued per FU type, per thread (Count)
system.cpu.statIssuedInstType_0::SimdMult            0      0.00%     91.50% # Number of instructions issued per FU type, per thread (Count)
system.cpu.statIssuedInstType_0::SimdMultAcc            0      0.00%     91.50% # Number of instructions issued per FU type, per thread (Count)
system.cpu.statIssuedInstType_0::SimdShift            0      0.00%     91.50% # Number of instructions issued per FU type, per thread (Count)
system.cpu.statIssuedInstType_0::SimdShiftAcc            0      0.00%     91.50% # Number of instructions issued per FU type, per thread (Count)
system.cpu.statIssuedInstType_0::SimdDiv            0      0.00%     91.50% # Number of instructions issued per FU type, per thread (Count)
system.cpu.statIssuedInstType_0::SimdSqrt            0      0.00%     91.50% # Number of instructions issued per FU type, per thread (Count)
system.cpu.statIssuedInstType_0::SimdFloatAdd            0      0.00%     91.50% # Number of instructions issued per FU type, per thread (Count)
system.cpu.statIssuedInstType_0::SimdFloatAlu            0      0.00%     91.50% # Number of instructions issued per FU type, per thread (Count)
system.cpu.statIssuedInstType_0::SimdFloatCmp            0      0.00%     91.50% # Number of instructions issued per FU type, per thread (Count)
system.cpu.statIssuedInstType_0::SimdFloatCvt            0      0.00%     91.50% # Number of instructions issued per FU type, per thread (Count)
system.cpu.statIssuedInstType_0::SimdFloatDiv            0      0.00%     91.50% # Number of instructions issued per FU type, per thread (Count)
system.cpu.statIssuedInstType_0::SimdFloatMisc            0      0.00%     91.50% # Number of instructions issued per FU type, per thread (Count)
system.cpu.statIssuedInstType_0::SimdFloatMult            0      0.00%     91.50% # Number of instructions issued per FU type, per thread (Count)
system.cpu.statIssuedInstType_0::SimdFloatMultAcc            0      0.00%     91.50% # Number of instructions issued per FU type, per thread (Count)
system.cpu.statIssuedInstType_0::SimdFloatSqrt            0      0.00%     91.50% # Number of instructions issued per FU type, per thread (Count)
system.cpu.statIssuedInstType_0::SimdReduceAdd            0      0.00%     91.50% # Number of instructions issued per FU type, per thread (Count)
system.cpu.statIssuedInstType_0::SimdReduceAlu            0      0.00%     91.50% # Number of instructions issued per FU type, per thread (Count)
system.cpu.statIssuedInstType_0::SimdReduceCmp            0      0.00%     91.50% # Number of instructions issued per FU type, per thread (Count)
system.cpu.statIssuedInstType_0::SimdFloatReduceAdd            0      0.00%     91.50% # Number of instructions issued per FU type, per thread (Count)
system.cpu.statIssuedInstType_0::SimdFloatReduceCmp            0      0.00%     91.50% # Number of instructions issued per FU type, per thread (Count)
system.cpu.statIssuedInstType_0::SimdAes            0      0.00%     91.50% # Number of instructions issued per FU type, per thread (Count)
system.cpu.statIssuedInstType_0::SimdAesMix            0      0.00%     91.50% # Number of instructions issued per FU type, per thread (Count)
system.cpu.statIssuedInstType_0::SimdSha1Hash            0      0.00%     91.50% # Number of instructions issued per FU type, per thread (Count)
system.cpu.statIssuedInstType_0::SimdSha1Hash2            0      0.00%     91.50% # Number of instructions issued per FU type, per thread (Count)
system.cpu.statIssuedInstType_0::SimdSha256Hash            0      0.00%     91.50% # Number of instructions issued per FU type, per thread (Count)
system.cpu.statIssuedInstType_0::SimdSha256Hash2            0      0.00%     91.50% # Number of instructions issued per FU type, per thread (Count)
system.cpu.statIssuedInstType_0::SimdShaSigma2            0      0.00%     91.50% # Number of instructions issued per FU type, per thread (Count)
system.cpu.statIssuedInstType_0::SimdShaSigma3            0      0.00%     91.50% # Number of instructions issued per FU type, per thread (Count)
system.cpu.statIssuedInstType_0::SimdPredAlu            0      0.00%     91.50% # Number of instructions issued per FU type, per thread (Count)
system.cpu.statIssuedInstType_0::MemRead         6893      4.39%     95.89% # Number of instructions issued per FU type, per thread (Count)
system.cpu.statIssuedInstType_0::MemWrite         5831      3.71%     99.61% # Number of instructions issued per FU type, per thread (Count)
system.cpu.statIssuedInstType_0::FloatMemRead           86      0.05%     99.66% # Number of instructions issued per FU type, per thread (Count)
system.cpu.statIssuedInstType_0::FloatMemWrite          529      0.34%    100.00% # Number of instructions issued per FU type, per thread (Count)
system.cpu.statIssuedInstType_0::IprAccess            0      0.00%    100.00% # Number of instructions issued per FU type, per thread (Count)
system.cpu.statIssuedInstType_0::InstPrefetch            0      0.00%    100.00% # Number of instructions issued per FU type, per thread (Count)
system.cpu.statIssuedInstType_0::total         156999                       # Number of instructions issued per FU type, per thread (Count)
system.cpu.issueRate                         0.791078                       # Inst issue rate ((Count/Cycle))
system.cpu.fuBusy                                 310                       # FU busy when requested (Count)
system.cpu.fuBusyRate                        0.001975                       # FU busy rate (busy events/executed inst) ((Count/Count))
system.cpu.intInstQueueReads                   489126                       # Number of integer instruction queue reads (Count)
system.cpu.intInstQueueWrites                  170954                       # Number of integer instruction queue writes (Count)
system.cpu.intInstQueueWakeupAccesses          154093                       # Number of integer instruction queue wakeup accesses (Count)
system.cpu.fpInstQueueReads                      2654                       # Number of floating instruction queue reads (Count)
system.cpu.fpInstQueueWrites                     1529                       # Number of floating instruction queue writes (Count)
system.cpu.fpInstQueueWakeupAccesses             1277                       # Number of floating instruction queue wakeup accesses (Count)
system.cpu.vecInstQueueReads                        0                       # Number of vector instruction queue reads (Count)
system.cpu.vecInstQueueWrites                       0                       # Number of vector instruction queue writes (Count)
system.cpu.vecInstQueueWakeupAccesses               0                       # Number of vector instruction queue wakeup accesses (Count)
system.cpu.intAluAccesses                      155318                       # Number of integer alu accesses (Count)
system.cpu.fpAluAccesses                         1340                       # Number of floating point alu accesses (Count)
system.cpu.vecAluAccesses                           0                       # Number of vector alu accesses (Count)
system.cpu.idleCycles                               0                       # Number of cycles IEW is idle (Cycle)
system.cpu.squashCycles                           606                       # Number of cycles IEW is squashing (Cycle)
system.cpu.blockCycles                          25185                       # Number of cycles IEW is blocking (Cycle)
system.cpu.unblockCycles                         1640                       # Number of cycles IEW is unblocking (Cycle)
system.cpu.dispatchedInsts                     159922                       # Number of instructions dispatched to IQ (Count)
system.cpu.dispSquashedInsts                      114                       # Number of squashed instructions skipped by dispatch (Count)
system.cpu.dispLoadInsts                         7205                       # Number of dispatched load instructions (Count)
system.cpu.dispStoreInsts                        6697                       # Number of dispatched store instructions (Count)
system.cpu.dispNonSpecInsts                         1                       # Number of dispatched non-speculative instructions (Count)
system.cpu.iqFullEvents                            31                       # Number of times the IQ has become full, causing a stall (Count)
system.cpu.lsqFullEvents                         1155                       # Number of times the LSQ has become full, causing a stall (Count)
system.cpu.memOrderViolationEvents                 11                       # Number of memory order violations (Count)
system.cpu.predictedTakenIncorrect                 54                       # Number of branches that were predicted taken incorrectly (Count)
system.cpu.predictedNotTakenIncorrect             642                       # Number of branches that were predicted not taken incorrectly (Count)
system.cpu.branchMispredicts                      696                       # Number of branch mispredicts detected at execute (Count)
system.cpu.numInsts                            156109                       # Number of executed instructions (Count)
system.cpu.numLoadInsts                          6819                       # Number of load instructions executed (Count)
system.cpu.numSquashedInsts                       884                       # Number of squashed instructions skipped in execute (Count)
system.cpu.numSwp                                   0                       # Number of swp insts executed (Count)
system.cpu.numNop                                   0                       # Number of nop insts executed (Count)
system.cpu.numRefs                              13093                       # Number of memory reference insts executed (Count)
system.cpu.numBranches                           6518                       # Number of branches executed (Count)
system.cpu.numStoreInsts                         6274                       # Number of stores executed (Count)
system.cpu.numRate                           0.786594                       # Inst execution rate ((Count/Cycle))
system.cpu.instsToCommit                       155762                       # Cumulative count of insts sent to commit (Count)
system.cpu.writebackCount                      155370                       # Cumulative count of insts written-back (Count)
system.cpu.producerInst                        129312                       # Number of instructions producing a value (Count)
system.cpu.consumerInst                        246090                       # Number of instructions consuming a value (Count)
system.cpu.wbRate                            0.782870                       # Insts written-back per cycle ((Count/Cycle))
system.cpu.wbFanout                          0.525466                       # Average fanout of values written-back ((Count/Count))
system.cpu.timesIdled                             309                       # Number of times that the entire CPU went into an idle state and unscheduled itself (Count)
system.cpu.idleCycles                           21025                       # Total number of cycles that the CPU has spent unscheduled due to idling (Cycle)
system.cpu.committedInsts                       94409                       # Number of Instructions Simulated (Count)
system.cpu.committedOps                        147357                       # Number of Ops (including micro ops) Simulated (Count)
system.cpu.cpi                               2.102151                       # CPI: Cycles Per Instruction ((Cycle/Count))
system.cpu.totalCpi                          2.102151                       # CPI: Total CPI of All Threads ((Cycle/Count))
system.cpu.ipc                               0.475703                       # IPC: Instructions Per Cycle ((Count/Cycle))
system.cpu.totalIpc                          0.475703                       # IPC: Total IPC of All Threads ((Count/Cycle))
system.cpu.intRegfileReads                     242579                       # Number of integer regfile reads (Count)
system.cpu.intRegfileWrites                    141588                       # Number of integer regfile writes (Count)
system.cpu.fpRegfileReads                        1527                       # Number of floating regfile reads (Count)
system.cpu.fpRegfileWrites                        714                       # Number of floating regfile writes (Count)
system.cpu.ccRegfileReads                       80630                       # number of cc regfile reads (Count)
system.cpu.ccRegfileWrites                     146505                       # number of cc regfile writes (Count)
system.cpu.miscRegfileReads                     27123                       # number of misc regfile reads (Count)
system.cpu.MemDepUnit__0.insertedLoads           7205                       # Number of loads inserted to the mem dependence unit. (Count)
system.cpu.MemDepUnit__0.insertedStores          6697                       # Number of stores inserted to the mem dependence unit. (Count)
system.cpu.MemDepUnit__0.conflictingLoads           24                       # Number of conflicting loads. (Count)
system.cpu.MemDepUnit__0.conflictingStores            4                       # Number of conflicting stores. (Count)
system.cpu.MemDepUnit__1.insertedLoads              0                       # Number of loads inserted to the mem dependence unit. (Count)
system.cpu.MemDepUnit__1.insertedStores             0                       # Number of stores inserted to the mem dependence unit. (Count)
system.cpu.MemDepUnit__1.conflictingLoads            0                       # Number of conflicting loads. (Count)
system.cpu.MemDepUnit__1.conflictingStores            0                       # Number of conflicting stores. (Count)
system.cpu.MemDepUnit__2.insertedLoads              0                       # Number of loads inserted to the mem dependence unit. (Count)
system.cpu.MemDepUnit__2.insertedStores             0                       # Number of stores inserted to the mem dependence unit. (Count)
system.cpu.MemDepUnit__2.conflictingLoads            0                       # Number of conflicting loads. (Count)
system.cpu.MemDepUnit__2.conflictingStores            0                       # Number of conflicting stores. (Count)
system.cpu.MemDepUnit__3.insertedLoads              0                       # Number of loads inserted to the mem dependence unit. (Count)
system.cpu.MemDepUnit__3.insertedStores             0                       # Number of stores inserted to the mem dependence unit. (Count)
system.cpu.MemDepUnit__3.conflictingLoads            0                       # Number of conflicting loads. (Count)
system.cpu.MemDepUnit__3.conflictingStores            0                       # Number of conflicting stores. (Count)
system.cpu.branchPred.lookups                    8126                       # Number of BP lookups (Count)
system.cpu.branchPred.condPredicted              6923                       # Number of conditional branches predicted (Count)
system.cpu.branchPred.condIncorrect               681                       # Number of conditional branches incorrect (Count)
system.cpu.branchPred.BTBLookups                 5954                       # Number of BTB lookups (Count)
system.cpu.branchPred.BTBHits                    5255                       # Number of BTB hits (Count)
system.cpu.branchPred.BTBHitRatio            0.882600                       # BTB Hit Ratio (Ratio)
system.cpu.branchPred.RASUsed                     271                       # Number of times the RAS was used to get a target. (Count)
system.cpu.branchPred.RASIncorrect                  0                       # Number of incorrect RAS predictions. (Count)
system.cpu.branchPred.indirectLookups             326                       # Number of indirect predictor lookups. (Count)
system.cpu.branchPred.indirectHits                 20                       # Number of indirect target hits. (Count)
system.cpu.branchPred.indirectMisses              306                       # Number of indirect misses. (Count)
system.cpu.branchPred.indirectMispredicted           90                       # Number of mispredicted indirect branches. (Count)
system.cpu.commit.commitSquashedInsts           12363                       # The number of squashed insts skipped by commit (Count)
system.cpu.commit.branchMispredicts               584                       # The number of times a branch was mispredicted (Count)
system.cpu.commit.numCommittedDist::samples       175436                       # Number of insts commited each cycle (Count)
system.cpu.commit.numCommittedDist::mean     0.839947                       # Number of insts commited each cycle (Count)
system.cpu.commit.numCommittedDist::stdev     1.574259                       # Number of insts commited each cycle (Count)
system.cpu.commit.numCommittedDist::underflows            0      0.00%      0.00% # Number of insts commited each cycle (Count)
system.cpu.commit.numCommittedDist::0          105612     60.20%     60.20% # Number of insts commited each cycle (Count)
system.cpu.commit.numCommittedDist::1           39494     22.51%     82.71% # Number of insts commited each cycle (Count)
system.cpu.commit.numCommittedDist::2           15051      8.58%     91.29% # Number of insts commited each cycle (Count)
system.cpu.commit.numCommittedDist::3            6356      3.62%     94.91% # Number of insts commited each cycle (Count)
system.cpu.commit.numCommittedDist::4             914      0.52%     95.43% # Number of insts commited each cycle (Count)
system.cpu.commit.numCommittedDist::5             344      0.20%     95.63% # Number of insts commited each cycle (Count)
system.cpu.commit.numCommittedDist::6            3955      2.25%     97.89% # Number of insts commited each cycle (Count)
system.cpu.commit.numCommittedDist::7              93      0.05%     97.94% # Number of insts commited each cycle (Count)
system.cpu.commit.numCommittedDist::8            3617      2.06%    100.00% # Number of insts commited each cycle (Count)
system.cpu.commit.numCommittedDist::overflows            0      0.00%    100.00% # Number of insts commited each cycle (Count)
system.cpu.commit.numCommittedDist::min_value            0                       # Number of insts commited each cycle (Count)
system.cpu.commit.numCommittedDist::max_value            8                       # Number of insts commited each cycle (Count)
system.cpu.commit.numCommittedDist::total       175436                       # Number of insts commited each cycle (Count)
system.cpu.commit.instsCommitted                94409                       # Number of instructions committed (Count)
system.cpu.commit.opsCommitted                 147357                       # Number of ops (including micro ops) committed (Count)
system.cpu.commit.memRefs                       11378                       # Number of memory references committed (Count)
system.cpu.commit.loads                          5646                       # Number of loads committed (Count)
system.cpu.commit.amos                              0                       # Number of atomic instructions committed (Count)
system.cpu.commit.membars                           0                       # Number of memory barriers committed (Count)
system.cpu.commit.branches                       5840                       # Number of branches committed (Count)
system.cpu.commit.vectorInstructions                0                       # Number of committed Vector instructions. (Count)
system.cpu.commit.floating                       1149                       # Number of committed floating point instructions. (Count)
system.cpu.commit.integer                      146608                       # Number of committed integer instructions. (Count)
system.cpu.commit.functionCalls                   150                       # Number of function calls committed. (Count)
system.cpu.commit.committedInstType_0::No_OpClass          194      0.13%      0.13% # Class of committed instruction (Count)
system.cpu.commit.committedInstType_0::IntAlu       135269     91.80%     91.93% # Class of committed instruction (Count)
system.cpu.commit.committedInstType_0::IntMult            5      0.00%     91.93% # Class of committed instruction (Count)
system.cpu.commit.committedInstType_0::IntDiv           21      0.01%     91.95% # Class of committed instruction (Count)
system.cpu.commit.committedInstType_0::FloatAdd          135      0.09%     92.04% # Class of committed instruction (Count)
system.cpu.commit.committedInstType_0::FloatCmp            0      0.00%     92.04% # Class of committed instruction (Count)
system.cpu.commit.committedInstType_0::FloatCvt            0      0.00%     92.04% # Class of committed instruction (Count)
system.cpu.commit.committedInstType_0::FloatMult            0      0.00%     92.04% # Class of committed instruction (Count)
system.cpu.commit.committedInstType_0::FloatMultAcc            0      0.00%     92.04% # Class of committed instruction (Count)
system.cpu.commit.committedInstType_0::FloatDiv            0      0.00%     92.04% # Class of committed instruction (Count)
system.cpu.commit.committedInstType_0::FloatMisc            0      0.00%     92.04% # Class of committed instruction (Count)
system.cpu.commit.committedInstType_0::FloatSqrt            0      0.00%     92.04% # Class of committed instruction (Count)
system.cpu.commit.committedInstType_0::SimdAdd            0      0.00%     92.04% # Class of committed instruction (Count)
system.cpu.commit.committedInstType_0::SimdAddAcc            0      0.00%     92.04% # Class of committed instruction (Count)
system.cpu.commit.committedInstType_0::SimdAlu           94      0.06%     92.10% # Class of committed instruction (Count)
system.cpu.commit.committedInstType_0::SimdCmp            0      0.00%     92.10% # Class of committed instruction (Count)
system.cpu.commit.committedInstType_0::SimdCvt           46      0.03%     92.13% # Class of committed instruction (Count)
system.cpu.commit.committedInstType_0::SimdMisc          215      0.15%     92.28% # Class of committed instruction (Count)
system.cpu.commit.committedInstType_0::SimdMult            0      0.00%     92.28% # Class of committed instruction (Count)
system.cpu.commit.committedInstType_0::SimdMultAcc            0      0.00%     92.28% # Class of committed instruction (Count)
system.cpu.commit.committedInstType_0::SimdShift            0      0.00%     92.28% # Class of committed instruction (Count)
system.cpu.commit.committedInstType_0::SimdShiftAcc            0      0.00%     92.28% # Class of committed instruction (Count)
system.cpu.commit.committedInstType_0::SimdDiv            0      0.00%     92.28% # Class of committed instruction (Count)
system.cpu.commit.committedInstType_0::SimdSqrt            0      0.00%     92.28% # Class of committed instruction (Count)
system.cpu.commit.committedInstType_0::SimdFloatAdd            0      0.00%     92.28% # Class of committed instruction (Count)
system.cpu.commit.committedInstType_0::SimdFloatAlu            0      0.00%     92.28% # Class of committed instruction (Count)
system.cpu.commit.committedInstType_0::SimdFloatCmp            0      0.00%     92.28% # Class of committed instruction (Count)
system.cpu.commit.committedInstType_0::SimdFloatCvt            0      0.00%     92.28% # Class of committed instruction (Count)
system.cpu.commit.committedInstType_0::SimdFloatDiv            0      0.00%     92.28% # Class of committed instruction (Count)
system.cpu.commit.committedInstType_0::SimdFloatMisc            0      0.00%     92.28% # Class of committed instruction (Count)
system.cpu.commit.committedInstType_0::SimdFloatMult            0      0.00%     92.28% # Class of committed instruction (Count)
system.cpu.commit.committedInstType_0::SimdFloatMultAcc            0      0.00%     92.28% # Class of committed instruction (Count)
system.cpu.commit.committedInstType_0::SimdFloatSqrt            0      0.00%     92.28% # Class of committed instruction (Count)
system.cpu.commit.committedInstType_0::SimdReduceAdd            0      0.00%     92.28% # Class of committed instruction (Count)
system.cpu.commit.committedInstType_0::SimdReduceAlu            0      0.00%     92.28% # Class of committed instruction (Count)
system.cpu.commit.committedInstType_0::SimdReduceCmp            0      0.00%     92.28% # Class of committed instruction (Count)
system.cpu.commit.committedInstType_0::SimdFloatReduceAdd            0      0.00%     92.28% # Class of committed instruction (Count)
system.cpu.commit.committedInstType_0::SimdFloatReduceCmp            0      0.00%     92.28% # Class of committed instruction (Count)
system.cpu.commit.committedInstType_0::SimdAes            0      0.00%     92.28% # Class of committed instruction (Count)
system.cpu.commit.committedInstType_0::SimdAesMix            0      0.00%     92.28% # Class of committed instruction (Count)
system.cpu.commit.committedInstType_0::SimdSha1Hash            0      0.00%     92.28% # Class of committed instruction (Count)
system.cpu.commit.committedInstType_0::SimdSha1Hash2            0      0.00%     92.28% # Class of committed instruction (Count)
system.cpu.commit.committedInstType_0::SimdSha256Hash            0      0.00%     92.28% # Class of committed instruction (Count)
system.cpu.commit.committedInstType_0::SimdSha256Hash2            0      0.00%     92.28% # Class of committed instruction (Count)
system.cpu.commit.committedInstType_0::SimdShaSigma2            0      0.00%     92.28% # Class of committed instruction (Count)
system.cpu.commit.committedInstType_0::SimdShaSigma3            0      0.00%     92.28% # Class of committed instruction (Count)
system.cpu.commit.committedInstType_0::SimdPredAlu            0      0.00%     92.28% # Class of committed instruction (Count)
system.cpu.commit.committedInstType_0::MemRead         5592      3.79%     96.07% # Class of committed instruction (Count)
system.cpu.commit.committedInstType_0::MemWrite         5266      3.57%     99.65% # Class of committed instruction (Count)
system.cpu.commit.committedInstType_0::FloatMemRead           54      0.04%     99.68% # Class of committed instruction (Count)
system.cpu.commit.committedInstType_0::FloatMemWrite          466      0.32%    100.00% # Class of committed instruction (Count)
system.cpu.commit.committedInstType_0::IprAccess            0      0.00%    100.00% # Class of committed instruction (Count)
system.cpu.commit.committedInstType_0::InstPrefetch            0      0.00%    100.00% # Class of committed instruction (Count)
system.cpu.commit.committedInstType_0::total       147357                       # Class of committed instruction (Count)
system.cpu.commit.commitEligibleSamples          3617                       # number cycles where commit BW limit reached (Cycle)
system.cpu.dcache.demandHits::cpu.data           3921                       # number of demand (read+write) hits (Count)
system.cpu.dcache.demandHits::total              3921                       # number of demand (read+write) hits (Count)
system.cpu.dcache.overallHits::cpu.data          3921                       # number of overall hits (Count)
system.cpu.dcache.overallHits::total             3921                       # number of overall hits (Count)
system.cpu.dcache.demandMisses::cpu.data         6132                       # number of demand (read+write) misses (Count)
system.cpu.dcache.demandMisses::total            6132                       # number of demand (read+write) misses (Count)
system.cpu.dcache.overallMisses::cpu.data         6132                       # number of overall misses (Count)
system.cpu.dcache.overallMisses::total           6132                       # number of overall misses (Count)
system.cpu.dcache.demandMissLatency::cpu.data    227738000                       # number of demand (read+write) miss ticks (Tick)
system.cpu.dcache.demandMissLatency::total    227738000                       # number of demand (read+write) miss ticks (Tick)
system.cpu.dcache.overallMissLatency::cpu.data    227738000                       # number of overall miss ticks (Tick)
system.cpu.dcache.overallMissLatency::total    227738000                       # number of overall miss ticks (Tick)
system.cpu.dcache.demandAccesses::cpu.data        10053                       # number of demand (read+write) accesses (Count)
system.cpu.dcache.demandAccesses::total         10053                       # number of demand (read+write) accesses (Count)
system.cpu.dcache.overallAccesses::cpu.data        10053                       # number of overall (read+write) accesses (Count)
system.cpu.dcache.overallAccesses::total        10053                       # number of overall (read+write) accesses (Count)
system.cpu.dcache.demandMissRate::cpu.data     0.609967                       # miss rate for demand accesses (Ratio)
system.cpu.dcache.demandMissRate::total      0.609967                       # miss rate for demand accesses (Ratio)
system.cpu.dcache.overallMissRate::cpu.data     0.609967                       # miss rate for overall accesses (Ratio)
system.cpu.dcache.overallMissRate::total     0.609967                       # miss rate for overall accesses (Ratio)
system.cpu.dcache.demandAvgMissLatency::cpu.data 37139.269406                       # average overall miss latency ((Cycle/Count))
system.cpu.dcache.demandAvgMissLatency::total 37139.269406                       # average overall miss latency ((Cycle/Count))
system.cpu.dcache.overallAvgMissLatency::cpu.data 37139.269406                       # average overall miss latency ((Cycle/Count))
system.cpu.dcache.overallAvgMissLatency::total 37139.269406                       # average overall miss latency ((Cycle/Count))
system.cpu.dcache.blockedCycles::no_mshrs          416                       # number of cycles access was blocked (Cycle)
system.cpu.dcache.blockedCycles::no_targets            0                       # number of cycles access was blocked (Cycle)
system.cpu.dcache.blockedCauses::no_mshrs           20                       # number of times access was blocked (Count)
system.cpu.dcache.blockedCauses::no_targets            0                       # number of times access was blocked (Count)
system.cpu.dcache.avgBlocked::no_mshrs      20.800000                       # average number of cycles each access was blocked ((Cycle/Count))
system.cpu.dcache.avgBlocked::no_targets          nan                       # average number of cycles each access was blocked ((Cycle/Count))
system.cpu.dcache.writebacks::writebacks         5757                       # number of writebacks (Count)
system.cpu.dcache.writebacks::total              5757                       # number of writebacks (Count)
system.cpu.dcache.demandMshrHits::cpu.data          215                       # number of demand (read+write) MSHR hits (Count)
system.cpu.dcache.demandMshrHits::total           215                       # number of demand (read+write) MSHR hits (Count)
system.cpu.dcache.overallMshrHits::cpu.data          215                       # number of overall MSHR hits (Count)
system.cpu.dcache.overallMshrHits::total          215                       # number of overall MSHR hits (Count)
system.cpu.dcache.demandMshrMisses::cpu.data         5917                       # number of demand (read+write) MSHR misses (Count)
system.cpu.dcache.demandMshrMisses::total         5917                       # number of demand (read+write) MSHR misses (Count)
system.cpu.dcache.overallMshrMisses::cpu.data         5917                       # number of overall MSHR misses (Count)
system.cpu.dcache.overallMshrMisses::total         5917                       # number of overall MSHR misses (Count)
system.cpu.dcache.demandMshrMissLatency::cpu.data    202019137                       # number of demand (read+write) MSHR miss ticks (Tick)
system.cpu.dcache.demandMshrMissLatency::total    202019137                       # number of demand (read+write) MSHR miss ticks (Tick)
system.cpu.dcache.overallMshrMissLatency::cpu.data    202019137                       # number of overall MSHR miss ticks (Tick)
system.cpu.dcache.overallMshrMissLatency::total    202019137                       # number of overall MSHR miss ticks (Tick)
system.cpu.dcache.demandMshrMissRate::cpu.data     0.588581                       # mshr miss ratio for demand accesses (Ratio)
system.cpu.dcache.demandMshrMissRate::total     0.588581                       # mshr miss ratio for demand accesses (Ratio)
system.cpu.dcache.overallMshrMissRate::cpu.data     0.588581                       # mshr miss ratio for overall accesses (Ratio)
system.cpu.dcache.overallMshrMissRate::total     0.588581                       # mshr miss ratio for overall accesses (Ratio)
system.cpu.dcache.demandAvgMshrMissLatency::cpu.data 34142.155991                       # average overall mshr miss latency ((Cycle/Count))
system.cpu.dcache.demandAvgMshrMissLatency::total 34142.155991                       # average overall mshr miss latency ((Cycle/Count))
system.cpu.dcache.overallAvgMshrMissLatency::cpu.data 34142.155991                       # average overall mshr miss latency ((Cycle/Count))
system.cpu.dcache.overallAvgMshrMissLatency::total 34142.155991                       # average overall mshr miss latency ((Cycle/Count))
system.cpu.dcache.replacements                   5757                       # number of replacements (Count)
system.cpu.dcache.ReadReq.hits::cpu.data         2271                       # number of ReadReq hits (Count)
system.cpu.dcache.ReadReq.hits::total            2271                       # number of ReadReq hits (Count)
system.cpu.dcache.ReadReq.misses::cpu.data         2049                       # number of ReadReq misses (Count)
system.cpu.dcache.ReadReq.misses::total          2049                       # number of ReadReq misses (Count)
system.cpu.dcache.ReadReq.missLatency::cpu.data     68519000                       # number of ReadReq miss ticks (Tick)
system.cpu.dcache.ReadReq.missLatency::total     68519000                       # number of ReadReq miss ticks (Tick)
system.cpu.dcache.ReadReq.accesses::cpu.data         4320                       # number of ReadReq accesses(hits+misses) (Count)
system.cpu.dcache.ReadReq.accesses::total         4320                       # number of ReadReq accesses(hits+misses) (Count)
system.cpu.dcache.ReadReq.missRate::cpu.data     0.474306                       # miss rate for ReadReq accesses (Ratio)
system.cpu.dcache.ReadReq.missRate::total     0.474306                       # miss rate for ReadReq accesses (Ratio)
system.cpu.dcache.ReadReq.avgMissLatency::cpu.data 33440.214739                       # average ReadReq miss latency ((Tick/Count))
system.cpu.dcache.ReadReq.avgMissLatency::total 33440.214739                       # average ReadReq miss latency ((Tick/Count))
system.cpu.dcache.ReadReq.mshrHits::cpu.data          213                       # number of ReadReq MSHR hits (Count)
system.cpu.dcache.ReadReq.mshrHits::total          213                       # number of ReadReq MSHR hits (Count)
system.cpu.dcache.ReadReq.mshrMisses::cpu.data         1836                       # number of ReadReq MSHR misses (Count)
system.cpu.dcache.ReadReq.mshrMisses::total         1836                       # number of ReadReq MSHR misses (Count)
system.cpu.dcache.ReadReq.mshrMissLatency::cpu.data     51039064                       # number of ReadReq MSHR miss ticks (Tick)
system.cpu.dcache.ReadReq.mshrMissLatency::total     51039064                       # number of ReadReq MSHR miss ticks (Tick)
system.cpu.dcache.ReadReq.mshrMissRate::cpu.data     0.425000                       # mshr miss rate for ReadReq accesses (Ratio)
system.cpu.dcache.ReadReq.mshrMissRate::total     0.425000                       # mshr miss rate for ReadReq accesses (Ratio)
system.cpu.dcache.ReadReq.avgMshrMissLatency::cpu.data 27799.054466                       # average ReadReq mshr miss latency ((Tick/Count))
system.cpu.dcache.ReadReq.avgMshrMissLatency::total 27799.054466                       # average ReadReq mshr miss latency ((Tick/Count))
system.cpu.dcache.WriteReq.hits::cpu.data         1650                       # number of WriteReq hits (Count)
system.cpu.dcache.WriteReq.hits::total           1650                       # number of WriteReq hits (Count)
system.cpu.dcache.WriteReq.misses::cpu.data         4083                       # number of WriteReq misses (Count)
system.cpu.dcache.WriteReq.misses::total         4083                       # number of WriteReq misses (Count)
system.cpu.dcache.WriteReq.missLatency::cpu.data    159219000                       # number of WriteReq miss ticks (Tick)
system.cpu.dcache.WriteReq.missLatency::total    159219000                       # number of WriteReq miss ticks (Tick)
system.cpu.dcache.WriteReq.accesses::cpu.data         5733                       # number of WriteReq accesses(hits+misses) (Count)
system.cpu.dcache.WriteReq.accesses::total         5733                       # number of WriteReq accesses(hits+misses) (Count)
system.cpu.dcache.WriteReq.missRate::cpu.data     0.712193                       # miss rate for WriteReq accesses (Ratio)
system.cpu.dcache.WriteReq.missRate::total     0.712193                       # miss rate for WriteReq accesses (Ratio)
system.cpu.dcache.WriteReq.avgMissLatency::cpu.data 38995.591477                       # average WriteReq miss latency ((Tick/Count))
system.cpu.dcache.WriteReq.avgMissLatency::total 38995.591477                       # average WriteReq miss latency ((Tick/Count))
system.cpu.dcache.WriteReq.mshrHits::cpu.data            2                       # number of WriteReq MSHR hits (Count)
system.cpu.dcache.WriteReq.mshrHits::total            2                       # number of WriteReq MSHR hits (Count)
system.cpu.dcache.WriteReq.mshrMisses::cpu.data         4081                       # number of WriteReq MSHR misses (Count)
system.cpu.dcache.WriteReq.mshrMisses::total         4081                       # number of WriteReq MSHR misses (Count)
system.cpu.dcache.WriteReq.mshrMissLatency::cpu.data    150980073                       # number of WriteReq MSHR miss ticks (Tick)
system.cpu.dcache.WriteReq.mshrMissLatency::total    150980073                       # number of WriteReq MSHR miss ticks (Tick)
system.cpu.dcache.WriteReq.mshrMissRate::cpu.data     0.711844                       # mshr miss rate for WriteReq accesses (Ratio)
system.cpu.dcache.WriteReq.mshrMissRate::total     0.711844                       # mshr miss rate for WriteReq accesses (Ratio)
system.cpu.dcache.WriteReq.avgMshrMissLatency::cpu.data 36995.852242                       # average WriteReq mshr miss latency ((Tick/Count))
system.cpu.dcache.WriteReq.avgMshrMissLatency::total 36995.852242                       # average WriteReq mshr miss latency ((Tick/Count))
system.cpu.dcache.power_state.pwrStateResidencyTicks::UNDEFINED    198461000                       # Cumulative time (in ticks) in various power states (Tick)
system.cpu.dcache.tags.tagsInUse           116.996710                       # Average ticks per tags in use ((Tick/Count))
system.cpu.dcache.tags.totalRefs                 9840                       # Total number of references to valid blocks. (Count)
system.cpu.dcache.tags.sampledRefs               5883                       # Sample count of references to valid blocks. (Count)
system.cpu.dcache.tags.avgRefs               1.672616                       # Average number of references to valid blocks. ((Count/Count))
system.cpu.dcache.tags.warmupTick              225000                       # The tick when the warmup percentage was hit. (Tick)
system.cpu.dcache.tags.occupancies::cpu.data   116.996710                       # Average occupied blocks per tick, per requestor ((Count/Tick))
system.cpu.dcache.tags.avgOccs::cpu.data     0.914037                       # Average percentage of cache occupancy ((Ratio/Tick))
system.cpu.dcache.tags.avgOccs::total        0.914037                       # Average percentage of cache occupancy ((Ratio/Tick))
system.cpu.dcache.tags.occupanciesTaskId::1024          126                       # Occupied blocks per task id (Count)
system.cpu.dcache.tags.ageTaskId_1024::0           19                       # Occupied blocks per task id, per block age (Count)
system.cpu.dcache.tags.ageTaskId_1024::2          107                       # Occupied blocks per task id, per block age (Count)
system.cpu.dcache.tags.ratioOccsTaskId::1024     0.984375                       # Ratio of occupied blocks and all blocks, per task id (Ratio)
system.cpu.dcache.tags.tagAccesses              25989                       # Number of tag accesses (Count)
system.cpu.dcache.tags.dataAccesses             25989                       # Number of data accesses (Count)
system.cpu.dcache.tags.power_state.pwrStateResidencyTicks::UNDEFINED    198461000                       # Cumulative time (in ticks) in various power states (Tick)
system.cpu.decode.idleCycles                    21831                       # Number of cycles decode is idle (Cycle)
system.cpu.decode.blockedCycles                133134                       # Number of cycles decode is blocked (Cycle)
system.cpu.decode.runCycles                     10875                       # Number of cycles decode is running (Cycle)
system.cpu.decode.unblockCycles                 10991                       # Number of cycles decode is unblocking (Cycle)
system.cpu.decode.squashCycles                    606                       # Number of cycles decode is squashing (Cycle)
system.cpu.decode.branchResolved                 5398                       # Number of times decode resolved a branch (Count)
system.cpu.decode.branchMispred                   227                       # Number of times decode detected a branch misprediction (Count)
system.cpu.decode.decodedInsts                 163540                       # Number of instructions handled by decode (Count)
system.cpu.decode.squashedInsts                  1150                       # Number of squashed instructions handled by decode (Count)
system.cpu.fetch.icacheStallCycles              26295                       # Number of cycles fetch is stalled on an Icache miss (Cycle)
system.cpu.fetch.insts                         105198                       # Number of instructions fetch has processed (Count)
system.cpu.fetch.branches                        8126                       # Number of branches that fetch encountered (Count)
system.cpu.fetch.predictedBranches               5546                       # Number of branches that fetch has predicted taken (Count)
system.cpu.fetch.cycles                        149349                       # Number of cycles fetch has run and was not squashing or blocked (Cycle)
system.cpu.fetch.squashCycles                    1648                       # Number of cycles fetch has spent squashing (Cycle)
system.cpu.fetch.miscStallCycles                  133                       # Number of cycles fetch has spent waiting on interrupts, or bad addresses, or out of MSHRs (Cycle)
system.cpu.fetch.pendingTrapStallCycles           780                       # Number of stall cycles due to pending traps (Cycle)
system.cpu.fetch.pendingQuiesceStallCycles            4                       # Number of stall cycles due to pending quiesce instructions (Cycle)
system.cpu.fetch.icacheWaitRetryStallCycles           52                       # Number of stall cycles due to full MSHR (Cycle)
system.cpu.fetch.cacheLines                     10675                       # Number of cache lines fetched (Count)
system.cpu.fetch.icacheSquashes                   352                       # Number of outstanding Icache misses that were squashed (Count)
system.cpu.fetch.nisnDist::samples             177437                       # Number of instructions fetched each cycle (Total) (Count)
system.cpu.fetch.nisnDist::mean              0.943439                       # Number of instructions fetched each cycle (Total) (Count)
system.cpu.fetch.nisnDist::stdev             2.408864                       # Number of instructions fetched each cycle (Total) (Count)
system.cpu.fetch.nisnDist::underflows               0      0.00%      0.00% # Number of instructions fetched each cycle (Total) (Count)
system.cpu.fetch.nisnDist::0                   151316     85.28%     85.28% # Number of instructions fetched each cycle (Total) (Count)
system.cpu.fetch.nisnDist::1                      245      0.14%     85.42% # Number of instructions fetched each cycle (Total) (Count)
system.cpu.fetch.nisnDist::2                      200      0.11%     85.53% # Number of instructions fetched each cycle (Total) (Count)
system.cpu.fetch.nisnDist::3                     4447      2.51%     88.04% # Number of instructions fetched each cycle (Total) (Count)
system.cpu.fetch.nisnDist::4                      577      0.33%     88.36% # Number of instructions fetched each cycle (Total) (Count)
system.cpu.fetch.nisnDist::5                     4432      2.50%     90.86% # Number of instructions fetched each cycle (Total) (Count)
system.cpu.fetch.nisnDist::6                      271      0.15%     91.01% # Number of instructions fetched each cycle (Total) (Count)
system.cpu.fetch.nisnDist::7                      271      0.15%     91.16% # Number of instructions fetched each cycle (Total) (Count)
system.cpu.fetch.nisnDist::8                    15678      8.84%    100.00% # Number of instructions fetched each cycle (Total) (Count)
system.cpu.fetch.nisnDist::overflows                0      0.00%    100.00% # Number of instructions fetched each cycle (Total) (Count)
system.cpu.fetch.nisnDist::min_value                0                       # Number of instructions fetched each cycle (Total) (Count)
system.cpu.fetch.nisnDist::max_value                8                       # Number of instructions fetched each cycle (Total) (Count)
system.cpu.fetch.nisnDist::total               177437                       # Number of instructions fetched each cycle (Total) (Count)
system.cpu.fetch.branchRate                  0.040945                       # Number of branch fetches per cycle (Ratio)
system.cpu.fetch.rate                        0.530066                       # Number of inst fetches per cycle ((Count/Cycle))
system.cpu.icache.demandHits::cpu.inst          10049                       # number of demand (read+write) hits (Count)
system.cpu.icache.demandHits::total             10049                       # number of demand (read+write) hits (Count)
system.cpu.icache.overallHits::cpu.inst         10049                       # number of overall hits (Count)
system.cpu.icache.overallHits::total            10049                       # number of overall hits (Count)
system.cpu.icache.demandMisses::cpu.inst          626                       # number of demand (read+write) misses (Count)
system.cpu.icache.demandMisses::total             626                       # number of demand (read+write) misses (Count)
system.cpu.icache.overallMisses::cpu.inst          626                       # number of overall misses (Count)
system.cpu.icache.overallMisses::total            626                       # number of overall misses (Count)
system.cpu.icache.demandMissLatency::cpu.inst     62490999                       # number of demand (read+write) miss ticks (Tick)
system.cpu.icache.demandMissLatency::total     62490999                       # number of demand (read+write) miss ticks (Tick)
system.cpu.icache.overallMissLatency::cpu.inst     62490999                       # number of overall miss ticks (Tick)
system.cpu.icache.overallMissLatency::total     62490999                       # number of overall miss ticks (Tick)
system.cpu.icache.demandAccesses::cpu.inst        10675                       # number of demand (read+write) accesses (Count)
system.cpu.icache.demandAccesses::total         10675                       # number of demand (read+write) accesses (Count)
system.cpu.icache.overallAccesses::cpu.inst        10675                       # number of overall (read+write) accesses (Count)
system.cpu.icache.overallAccesses::total        10675                       # number of overall (read+write) accesses (Count)
system.cpu.icache.demandMissRate::cpu.inst     0.058642                       # miss rate for demand accesses (Ratio)
system.cpu.icache.demandMissRate::total      0.058642                       # miss rate for demand accesses (Ratio)
system.cpu.icache.overallMissRate::cpu.inst     0.058642                       # miss rate for overall accesses (Ratio)
system.cpu.icache.overallMissRate::total     0.058642                       # miss rate for overall accesses (Ratio)
system.cpu.icache.demandAvgMissLatency::cpu.inst 99825.876997                       # average overall miss latency ((Cycle/Count))
system.cpu.icache.demandAvgMissLatency::total 99825.876997                       # average overall miss latency ((Cycle/Count))
system.cpu.icache.overallAvgMissLatency::cpu.inst 99825.876997                       # average overall miss latency ((Cycle/Count))
system.cpu.icache.overallAvgMissLatency::total 99825.876997                       # average overall miss latency ((Cycle/Count))
system.cpu.icache.blockedCycles::no_mshrs          129                       # number of cycles access was blocked (Cycle)
system.cpu.icache.blockedCycles::no_targets            0                       # number of cycles access was blocked (Cycle)
system.cpu.icache.blockedCauses::no_mshrs            5                       # number of times access was blocked (Count)
system.cpu.icache.blockedCauses::no_targets            0                       # number of times access was blocked (Count)
system.cpu.icache.avgBlocked::no_mshrs      25.800000                       # average number of cycles each access was blocked ((Cycle/Count))
system.cpu.icache.avgBlocked::no_targets          nan                       # average number of cycles each access was blocked ((Cycle/Count))
system.cpu.icache.demandMshrHits::cpu.inst          145                       # number of demand (read+write) MSHR hits (Count)
system.cpu.icache.demandMshrHits::total           145                       # number of demand (read+write) MSHR hits (Count)
system.cpu.icache.overallMshrHits::cpu.inst          145                       # number of overall MSHR hits (Count)
system.cpu.icache.overallMshrHits::total          145                       # number of overall MSHR hits (Count)
system.cpu.icache.demandMshrMisses::cpu.inst          481                       # number of demand (read+write) MSHR misses (Count)
system.cpu.icache.demandMshrMisses::total          481                       # number of demand (read+write) MSHR misses (Count)
system.cpu.icache.overallMshrMisses::cpu.inst          481                       # number of overall MSHR misses (Count)
system.cpu.icache.overallMshrMisses::total          481                       # number of overall MSHR misses (Count)
system.cpu.icache.demandMshrMissLatency::cpu.inst     49902999                       # number of demand (read+write) MSHR miss ticks (Tick)
system.cpu.icache.demandMshrMissLatency::total     49902999                       # number of demand (read+write) MSHR miss ticks (Tick)
system.cpu.icache.overallMshrMissLatency::cpu.inst     49902999                       # number of overall MSHR miss ticks (Tick)
system.cpu.icache.overallMshrMissLatency::total     49902999                       # number of overall MSHR miss ticks (Tick)
system.cpu.icache.demandMshrMissRate::cpu.inst     0.045059                       # mshr miss ratio for demand accesses (Ratio)
system.cpu.icache.demandMshrMissRate::total     0.045059                       # mshr miss ratio for demand accesses (Ratio)
system.cpu.icache.overallMshrMissRate::cpu.inst     0.045059                       # mshr miss ratio for overall accesses (Ratio)
system.cpu.icache.overallMshrMissRate::total     0.045059                       # mshr miss ratio for overall accesses (Ratio)
system.cpu.icache.demandAvgMshrMissLatency::cpu.inst 103748.438669                       # average overall mshr miss latency ((Cycle/Count))
system.cpu.icache.demandAvgMshrMissLatency::total 103748.438669                       # average overall mshr miss latency ((Cycle/Count))
system.cpu.icache.overallAvgMshrMissLatency::cpu.inst 103748.438669                       # average overall mshr miss latency ((Cycle/Count))
system.cpu.icache.overallAvgMshrMissLatency::total 103748.438669                       # average overall mshr miss latency ((Cycle/Count))
system.cpu.icache.replacements                    236                       # number of replacements (Count)
system.cpu.icache.ReadReq.hits::cpu.inst        10049                       # number of ReadReq hits (Count)
system.cpu.icache.ReadReq.hits::total           10049                       # number of ReadReq hits (Count)
system.cpu.icache.ReadReq.misses::cpu.inst          626                       # number of ReadReq misses (Count)
system.cpu.icache.ReadReq.misses::total           626                       # number of ReadReq misses (Count)
system.cpu.icache.ReadReq.missLatency::cpu.inst     62490999                       # number of ReadReq miss ticks (Tick)
system.cpu.icache.ReadReq.missLatency::total     62490999                       # number of ReadReq miss ticks (Tick)
system.cpu.icache.ReadReq.accesses::cpu.inst        10675                       # number of ReadReq accesses(hits+misses) (Count)
system.cpu.icache.ReadReq.accesses::total        10675                       # number of ReadReq accesses(hits+misses) (Count)
system.cpu.icache.ReadReq.missRate::cpu.inst     0.058642                       # miss rate for ReadReq accesses (Ratio)
system.cpu.icache.ReadReq.missRate::total     0.058642                       # miss rate for ReadReq accesses (Ratio)
system.cpu.icache.ReadReq.avgMissLatency::cpu.inst 99825.876997                       # average ReadReq miss latency ((Tick/Count))
system.cpu.icache.ReadReq.avgMissLatency::total 99825.876997                       # average ReadReq miss latency ((Tick/Count))
system.cpu.icache.ReadReq.mshrHits::cpu.inst          145                       # number of ReadReq MSHR hits (Count)
system.cpu.icache.ReadReq.mshrHits::total          145                       # number of ReadReq MSHR hits (Count)
system.cpu.icache.ReadReq.mshrMisses::cpu.inst          481                       # number of ReadReq MSHR misses (Count)
system.cpu.icache.ReadReq.mshrMisses::total          481                       # number of ReadReq MSHR misses (Count)
system.cpu.icache.ReadReq.mshrMissLatency::cpu.inst     49902999                       # number of ReadReq MSHR miss ticks (Tick)
system.cpu.icache.ReadReq.mshrMissLatency::total     49902999                       # number of ReadReq MSHR miss ticks (Tick)
system.cpu.icache.ReadReq.mshrMissRate::cpu.inst     0.045059                       # mshr miss rate for ReadReq accesses (Ratio)
system.cpu.icache.ReadReq.mshrMissRate::total     0.045059                       # mshr miss rate for ReadReq accesses (Ratio)
system.cpu.icache.ReadReq.avgMshrMissLatency::cpu.inst 103748.438669                       # average ReadReq mshr miss latency ((Tick/Count))
system.cpu.icache.ReadReq.avgMshrMissLatency::total 103748.438669                       # average ReadReq mshr miss latency ((Tick/Count))
system.cpu.icache.power_state.pwrStateResidencyTicks::UNDEFINED    198461000                       # Cumulative time (in ticks) in various power states (Tick)
system.cpu.icache.tags.tagsInUse           220.519352                       # Average ticks per tags in use ((Tick/Count))
system.cpu.icache.tags.totalRefs                10530                       # Total number of references to valid blocks. (Count)
system.cpu.icache.tags.sampledRefs                481                       # Sample count of references to valid blocks. (Count)
system.cpu.icache.tags.avgRefs              21.891892                       # Average number of references to valid blocks. ((Count/Count))
system.cpu.icache.tags.warmupTick              107000                       # The tick when the warmup percentage was hit. (Tick)
system.cpu.icache.tags.occupancies::cpu.inst   220.519352                       # Average occupied blocks per tick, per requestor ((Count/Tick))
system.cpu.icache.tags.avgOccs::cpu.inst     0.861404                       # Average percentage of cache occupancy ((Ratio/Tick))
system.cpu.icache.tags.avgOccs::total        0.861404                       # Average percentage of cache occupancy ((Ratio/Tick))
system.cpu.icache.tags.occupanciesTaskId::1024          245                       # Occupied blocks per task id (Count)
system.cpu.icache.tags.ageTaskId_1024::0           37                       # Occupied blocks per task id, per block age (Count)
system.cpu.icache.tags.ageTaskId_1024::2          208                       # Occupied blocks per task id, per block age (Count)
system.cpu.icache.tags.ratioOccsTaskId::1024     0.957031                       # Ratio of occupied blocks and all blocks, per task id (Ratio)
system.cpu.icache.tags.tagAccesses              21831                       # Number of tag accesses (Count)
system.cpu.icache.tags.dataAccesses             21831                       # Number of data accesses (Count)
system.cpu.icache.tags.power_state.pwrStateResidencyTicks::UNDEFINED    198461000                       # Cumulative time (in ticks) in various power states (Tick)
system.cpu.interrupts.clk_domain.clock          16000                       # Clock period in ticks (Tick)
system.cpu.lsq0.forwLoads                        2392                       # Number of loads that had data forwarded from stores (Count)
system.cpu.lsq0.squashedLoads                    1559                       # Number of loads squashed (Count)
system.cpu.lsq0.ignoredResponses                    3                       # Number of memory responses ignored because the instruction is squashed (Count)
system.cpu.lsq0.memOrderViolation                  11                       # Number of memory ordering violations (Count)
system.cpu.lsq0.squashedStores                    965                       # Number of stores squashed (Count)
system.cpu.lsq0.rescheduledLoads                    1                       # Number of loads that were rescheduled (Count)
system.cpu.lsq0.blockedByCache                     11                       # Number of times an access to memory failed due to the cache being blocked (Count)
system.cpu.lsq0.loadToUse::samples               5646                       # Distribution of cycle latency between the first time a load is issued and its completion (Unspecified)
system.cpu.lsq0.loadToUse::mean             12.158696                       # Distribution of cycle latency between the first time a load is issued and its completion (Unspecified)
system.cpu.lsq0.loadToUse::stdev            24.601972                       # Distribution of cycle latency between the first time a load is issued and its completion (Unspecified)
system.cpu.lsq0.loadToUse::0-9                   4769     84.47%     84.47% # Distribution of cycle latency between the first time a load is issued and its completion (Unspecified)
system.cpu.lsq0.loadToUse::10-19                   20      0.35%     84.82% # Distribution of cycle latency between the first time a load is issued and its completion (Unspecified)
system.cpu.lsq0.loadToUse::20-29                   13      0.23%     85.05% # Distribution of cycle latency between the first time a load is issued and its completion (Unspecified)
system.cpu.lsq0.loadToUse::30-39                  316      5.60%     90.65% # Distribution of cycle latency between the first time a load is issued and its completion (Unspecified)
system.cpu.lsq0.loadToUse::40-49                    6      0.11%     90.75% # Distribution of cycle latency between the first time a load is issued and its completion (Unspecified)
system.cpu.lsq0.loadToUse::50-59                   47      0.83%     91.59% # Distribution of cycle latency between the first time a load is issued and its completion (Unspecified)
system.cpu.lsq0.loadToUse::60-69                   20      0.35%     91.94% # Distribution of cycle latency between the first time a load is issued and its completion (Unspecified)
system.cpu.lsq0.loadToUse::70-79                  321      5.69%     97.63% # Distribution of cycle latency between the first time a load is issued and its completion (Unspecified)
system.cpu.lsq0.loadToUse::80-89                    7      0.12%     97.75% # Distribution of cycle latency between the first time a load is issued and its completion (Unspecified)
system.cpu.lsq0.loadToUse::90-99                   21      0.37%     98.12% # Distribution of cycle latency between the first time a load is issued and its completion (Unspecified)
system.cpu.lsq0.loadToUse::100-109                 22      0.39%     98.51% # Distribution of cycle latency between the first time a load is issued and its completion (Unspecified)
system.cpu.lsq0.loadToUse::110-119                 23      0.41%     98.92% # Distribution of cycle latency between the first time a load is issued and its completion (Unspecified)
system.cpu.lsq0.loadToUse::120-129                 41      0.73%     99.65% # Distribution of cycle latency between the first time a load is issued and its completion (Unspecified)
system.cpu.lsq0.loadToUse::130-139                  3      0.05%     99.70% # Distribution of cycle latency between the first time a load is issued and its completion (Unspecified)
system.cpu.lsq0.loadToUse::140-149                  2      0.04%     99.73% # Distribution of cycle latency between the first time a load is issued and its completion (Unspecified)
system.cpu.lsq0.loadToUse::160-169                  3      0.05%     99.79% # Distribution of cycle latency between the first time a load is issued and its completion (Unspecified)
system.cpu.lsq0.loadToUse::170-179                  7      0.12%     99.91% # Distribution of cycle latency between the first time a load is issued and its completion (Unspecified)
system.cpu.lsq0.loadToUse::200-209                  5      0.09%    100.00% # Distribution of cycle latency between the first time a load is issued and its completion (Unspecified)
system.cpu.lsq0.loadToUse::min_value                2                       # Distribution of cycle latency between the first time a load is issued and its completion (Unspecified)
system.cpu.lsq0.loadToUse::max_value              209                       # Distribution of cycle latency between the first time a load is issued and its completion (Unspecified)
system.cpu.lsq0.loadToUse::total                 5646                       # Distribution of cycle latency between the first time a load is issued and its completion (Unspecified)
system.cpu.mmu.dtb.rdAccesses                    6780                       # TLB accesses on read requests (Count)
system.cpu.mmu.dtb.wrAccesses                    6275                       # TLB accesses on write requests (Count)
system.cpu.mmu.dtb.rdMisses                        90                       # TLB misses on read requests (Count)
system.cpu.mmu.dtb.wrMisses                        40                       # TLB misses on write requests (Count)
system.cpu.mmu.dtb.walker.power_state.pwrStateResidencyTicks::UNDEFINED    198461000                       # Cumulative time (in ticks) in various power states (Tick)
system.cpu.mmu.itb.rdAccesses                       0                       # TLB accesses on read requests (Count)
system.cpu.mmu.itb.wrAccesses                   10810                       # TLB accesses on write requests (Count)
system.cpu.mmu.itb.rdMisses                         0                       # TLB misses on read requests (Count)
system.cpu.mmu.itb.wrMisses                       177                       # TLB misses on write requests (Count)
system.cpu.mmu.itb.walker.power_state.pwrStateResidencyTicks::UNDEFINED    198461000                       # Cumulative time (in ticks) in various power states (Tick)
system.cpu.power_state.pwrStateResidencyTicks::ON    198461000                       # Cumulative time (in ticks) in various power states (Tick)
system.cpu.rename.squashCycles                    606                       # Number of cycles rename is squashing (Cycle)
system.cpu.rename.idleCycles                    25887                       # Number of cycles rename is idle (Cycle)
system.cpu.rename.blockCycles                   32018                       # Number of cycles rename is blocking (Cycle)
system.cpu.rename.serializeStallCycles             35                       # count of cycles rename stalled for serializing inst (Cycle)
system.cpu.rename.runCycles                     17517                       # Number of cycles rename is running (Cycle)
system.cpu.rename.unblockCycles                101374                       # Number of cycles rename is unblocking (Cycle)
system.cpu.rename.renamedInsts                 162357                       # Number of instructions processed by rename (Count)
system.cpu.rename.ROBFullEvents                    14                       # Number of times rename has blocked due to ROB full (Count)
system.cpu.rename.IQFullEvents                  20542                       # Number of times rename has blocked due to IQ full (Count)
[...]
system.victimbus.pktCount_system.cpu.dcache.mem_side_port::system.victimcache.cpu_side_port        17595                       # Packet count per connected requestor and responder (Count)
system.victimbus.pktSize_system.cpu.dcache.mem_side_port::system.victimcache.cpu_side_port       744960                       # Cumulative packet size per connected requestor and responder (Byte)
system.victimbus.snoops                          6742                       # Total snoops (Count)
system.victimbus.snoopTraffic                  431488                       # Total snoop traffic (Byte)
system.victimbus.snoopFanout::samples           12661                       # Request fanout histogram (Count)
system.victimbus.snoopFanout::mean           0.258747                       # Request fanout histogram (Count)
system.victimbus.snoopFanout::stdev          0.437964                       # Request fanout histogram (Count)
system.victimbus.snoopFanout::underflows            0      0.00%      0.00% # Request fanout histogram (Count)
system.victimbus.snoopFanout::0                  9385     74.13%     74.13% # Request fanout histogram (Count)
system.victimbus.snoopFanout::1                  3276     25.87%    100.00% # Request fanout histogram (Count)
system.victimbus.snoopFanout::overflows             0      0.00%    100.00% # Request fanout histogram (Count)
system.victimbus.snoopFanout::min_value             0                       # Request fanout histogram (Count)
system.victimbus.snoopFanout::max_value             1                       # Request fanout histogram (Count)
system.victimbus.snoopFanout::total             12661                       # Request fanout histogram (Count)
system.victimbus.power_state.pwrStateResidencyTicks::UNDEFINED    198461000                       # Cumulative time (in ticks) in various power states (Tick)
system.victimbus.reqLayer0.occupancy         17433000                       # Layer occupancy (ticks) (Tick)
system.victimbus.reqLayer0.utilization            0.1                       # Layer utilization (Ratio)
system.victimbus.respLayer0.occupancy        17578218                       # Layer occupancy (ticks) (Tick)
system.victimbus.respLayer0.utilization           0.1                       # Layer utilization (Ratio)
system.victimbus.snoop_filter.totRequests        11676                       # Total number of requests made to the snoop filter. (Count)
system.victimbus.snoop_filter.hitSingleRequests         5793                       # Number of requests hitting in the snoop filter with a single holder of the requested data. (Count)
system.victimbus.snoop_filter.hitMultiRequests            0                       # Number of requests hitting in the snoop filter with multiple (>1) holders of the requested data. (Count)
system.victimbus.snoop_filter.totSnoops          3276                       # Total number of snoops made to the snoop filter. (Count)
system.victimbus.snoop_filter.hitSingleSnoops         3276                       # Number of snoops hitting in the snoop filter with a single holder of the requested data. (Count)
system.victimbus.snoop_filter.hitMultiSnoops            0                       # Number of snoops hitting in the snoop filter with multiple (>1) holders of the requested data. (Count)
system.victimcache.demandHits::cpu.data          2546                       # number of demand (read+write) hits (Count)
system.victimcache.demandHits::total             2546                       # number of demand (read+write) hits (Count)
system.victimcache.overallHits::cpu.data         2546                       # number of overall hits (Count)
system.victimcache.overallHits::total            2546                       # number of overall hits (Count)
system.victimcache.demandMisses::cpu.data         3337                       # number of demand (read+write) misses (Count)
system.victimcache.demandMisses::total           3337                       # number of demand (read+write) misses (Count)
system.victimcache.overallMisses::cpu.data         3337                       # number of overall misses (Count)
system.victimcache.overallMisses::total          3337                       # number of overall misses (Count)
system.victimcache.demandMissLatency::cpu.data    182223000                       # number of demand (read+write) miss ticks (Tick)
system.victimcache.demandMissLatency::total    182223000                       # number of demand (read+write) miss ticks (Tick)
system.victimcache.overallMissLatency::cpu.data    182223000                       # number of overall miss ticks (Tick)
system.victimcache.overallMissLatency::total    182223000                       # number of overall miss ticks (Tick)
system.victimcache.demandAccesses::cpu.data         5883                       # number of demand (read+write) accesses (Count)
system.victimcache.demandAccesses::total         5883                       # number of demand (read+write) accesses (Count)
system.victimcache.overallAccesses::cpu.data         5883                       # number of overall (read+write) accesses (Count)
system.victimcache.overallAccesses::total         5883                       # number of overall (read+write) accesses (Count)
system.victimcache.demandMissRate::cpu.data     0.567228                       # miss rate for demand accesses (Ratio)
system.victimcache.demandMissRate::total     0.567228                       # miss rate for demand accesses (Ratio)
system.victimcache.overallMissRate::cpu.data     0.567228                       # miss rate for overall accesses (Ratio)
system.victimcache.overallMissRate::total     0.567228                       # miss rate for overall accesses (Ratio)
system.victimcache.demandAvgMissLatency::cpu.data 54606.832484                       # average overall miss latency ((Cycle/Count))
system.victimcache.demandAvgMissLatency::total 54606.832484                       # average overall miss latency ((Cycle/Count))
system.victimcache.overallAvgMissLatency::cpu.data 54606.832484                       # average overall miss latency ((Cycle/Count))
system.victimcache.overallAvgMissLatency::total 54606.832484                       # average overall miss latency ((Cycle/Count))
system.victimcache.blockedCycles::no_mshrs          356                       # number of cycles access was blocked (Cycle)
system.victimcache.blockedCycles::no_targets            0                       # number of cycles access was blocked (Cycle)
system.victimcache.blockedCauses::no_mshrs           11                       # number of times access was blocked (Count)
system.victimcache.blockedCauses::no_targets            0                       # number of times access was blocked (Count)
system.victimcache.avgBlocked::no_mshrs     32.363636                       # average number of cycles each access was blocked ((Cycle/Count))
system.victimcache.avgBlocked::no_targets          nan                       # average number of cycles each access was blocked ((Cycle/Count))
system.victimcache.writebacks::writebacks         6396                       # number of writebacks (Count)
system.victimcache.writebacks::total             6396                       # number of writebacks (Count)
system.victimcache.demandMshrMisses::cpu.data         3337                       # number of demand (read+write) MSHR misses (Count)
system.victimcache.demandMshrMisses::total         3337                       # number of demand (read+write) MSHR misses (Count)
system.victimcache.overallMshrMisses::cpu.data         3337                       # number of overall MSHR misses (Count)
system.victimcache.overallMshrMisses::total         3337                       # number of overall MSHR misses (Count)
system.victimcache.demandMshrMissLatency::cpu.data    182223000                       # number of demand (read+write) MSHR miss ticks (Tick)
system.victimcache.demandMshrMissLatency::total    182223000                       # number of demand (read+write) MSHR miss ticks (Tick)
system.victimcache.overallMshrMissLatency::cpu.data    182223000                       # number of overall MSHR miss ticks (Tick)
system.victimcache.overallMshrMissLatency::total    182223000                       # number of overall MSHR miss ticks (Tick)
system.victimcache.demandMshrMissRate::cpu.data     0.567228                       # mshr miss ratio for demand accesses (Ratio)
system.victimcache.demandMshrMissRate::total     0.567228                       # mshr miss ratio for demand accesses (Ratio)
system.victimcache.overallMshrMissRate::cpu.data     0.567228                       # mshr miss ratio for overall accesses (Ratio)
system.victimcache.overallMshrMissRate::total     0.567228                       # mshr miss ratio for overall accesses (Ratio)
system.victimcache.demandAvgMshrMissLatency::cpu.data 54606.832484                       # average overall mshr miss latency ((Cycle/Count))
system.victimcache.demandAvgMshrMissLatency::total 54606.832484                       # average overall mshr miss latency ((Cycle/Count))
system.victimcache.overallAvgMshrMissLatency::cpu.data 54606.832484                       # average overall mshr miss latency ((Cycle/Count))
system.victimcache.overallAvgMshrMissLatency::total 54606.832484                       # average overall mshr miss latency ((Cycle/Count))
system.victimcache.replacements                  3127                       # number of replacements (Count)
system.victimcache.ReadExReq.hits::cpu.data         1515                       # number of ReadExReq hits (Count)
system.victimcache.ReadExReq.hits::total         1515                       # number of ReadExReq hits (Count)
system.victimcache.ReadExReq.misses::cpu.data         2532                       # number of ReadExReq misses (Count)
system.victimcache.ReadExReq.misses::total         2532                       # number of ReadExReq misses (Count)
system.victimcache.ReadExReq.missLatency::cpu.data    136813000                       # number of ReadExReq miss ticks (Tick)
system.victimcache.ReadExReq.missLatency::total    136813000                       # number of ReadExReq miss ticks (Tick)
system.victimcache.ReadExReq.accesses::cpu.data         4047                       # number of ReadExReq accesses(hits+misses) (Count)
system.victimcache.ReadExReq.accesses::total         4047                       # number of ReadExReq accesses(hits+misses) (Count)
system.victimcache.ReadExReq.missRate::cpu.data     0.625649                       # miss rate for ReadExReq accesses (Ratio)
system.victimcache.ReadExReq.missRate::total     0.625649                       # miss rate for ReadExReq accesses (Ratio)
system.victimcache.ReadExReq.avgMissLatency::cpu.data 54033.570300                       # average ReadExReq miss latency ((Tick/Count))
system.victimcache.ReadExReq.avgMissLatency::total 54033.570300                       # average ReadExReq miss latency ((Tick/Count))
system.victimcache.ReadExReq.mshrMisses::cpu.data         2532                       # number of ReadExReq MSHR misses (Count)
system.victimcache.ReadExReq.mshrMisses::total         2532                       # number of ReadExReq MSHR misses (Count)
system.victimcache.ReadExReq.mshrMissLatency::cpu.data    136813000                       # number of ReadExReq MSHR miss ticks (Tick)
system.victimcache.ReadExReq.mshrMissLatency::total    136813000                       # number of ReadExReq MSHR miss ticks (Tick)
system.victimcache.ReadExReq.mshrMissRate::cpu.data     0.625649                       # mshr miss rate for ReadExReq accesses (Ratio)
system.victimcache.ReadExReq.mshrMissRate::total     0.625649                       # mshr miss rate for ReadExReq accesses (Ratio)
system.victimcache.ReadExReq.avgMshrMissLatency::cpu.data 54033.570300                       # average ReadExReq mshr miss latency ((Tick/Count))
system.victimcache.ReadExReq.avgMshrMissLatency::total 54033.570300                       # average ReadExReq mshr miss latency ((Tick/Count))
system.victimcache.ReadSharedReq.hits::cpu.data         1031                       # number of ReadSharedReq hits (Count)
system.victimcache.ReadSharedReq.hits::total         1031                       # number of ReadSharedReq hits (Count)
system.victimcache.ReadSharedReq.misses::cpu.data          805                       # number of ReadSharedReq misses (Count)
system.victimcache.ReadSharedReq.misses::total          805                       # number of ReadSharedReq misses (Count)
system.victimcache.ReadSharedReq.missLatency::cpu.data     45410000                       # number of ReadSharedReq miss ticks (Tick)
system.victimcache.ReadSharedReq.missLatency::total     45410000                       # number of ReadSharedReq miss ticks (Tick)
system.victimcache.ReadSharedReq.accesses::cpu.data         1836                       # number of ReadSharedReq accesses(hits+misses) (Count)
system.victimcache.ReadSharedReq.accesses::total         1836                       # number of ReadSharedReq accesses(hits+misses) (Count)
system.victimcache.ReadSharedReq.missRate::cpu.data     0.438453                       # miss rate for ReadSharedReq accesses (Ratio)
system.victimcache.ReadSharedReq.missRate::total     0.438453                       # miss rate for ReadSharedReq accesses (Ratio)
system.victimcache.ReadSharedReq.avgMissLatency::cpu.data 56409.937888                       # average ReadSharedReq miss latency ((Tick/Count))
system.victimcache.ReadSharedReq.avgMissLatency::total 56409.937888                       # average ReadSharedReq miss latency ((Tick/Count))
system.victimcache.ReadSharedReq.mshrMisses::cpu.data          805                       # number of ReadSharedReq MSHR misses (Count)
system.victimcache.ReadSharedReq.mshrMisses::total          805                       # number of ReadSharedReq MSHR misses (Count)
system.victimcache.ReadSharedReq.mshrMissLatency::cpu.data     45410000                       # number of ReadSharedReq MSHR miss ticks (Tick)
system.victimcache.ReadSharedReq.mshrMissLatency::total     45410000                       # number of ReadSharedReq MSHR miss ticks (Tick)
system.victimcache.ReadSharedReq.mshrMissRate::cpu.data     0.438453                       # mshr miss rate for ReadSharedReq accesses (Ratio)
system.victimcache.ReadSharedReq.mshrMissRate::total     0.438453                       # mshr miss rate for ReadSharedReq accesses (Ratio)
system.victimcache.ReadSharedReq.avgMshrMissLatency::cpu.data 56409.937888                       # average ReadSharedReq mshr miss latency ((Tick/Count))
system.victimcache.ReadSharedReq.avgMshrMissLatency::total 56409.937888                       # average ReadSharedReq mshr miss latency ((Tick/Count))
system.victimcache.UpgradeReq.misses::cpu.data           36                       # number of UpgradeReq misses (Count)
system.victimcache.UpgradeReq.misses::total           36                       # number of UpgradeReq misses (Count)
system.victimcache.UpgradeReq.accesses::cpu.data           36                       # number of UpgradeReq accesses(hits+misses) (Count)
system.victimcache.UpgradeReq.accesses::total           36                       # number of UpgradeReq accesses(hits+misses) (Count)
system.victimcache.UpgradeReq.missRate::cpu.data            1                       # miss rate for UpgradeReq accesses (Ratio)
system.victimcache.UpgradeReq.missRate::total            1                       # miss rate for UpgradeReq accesses (Ratio)
system.victimcache.UpgradeReq.mshrMisses::cpu.data           36                       # number of UpgradeReq MSHR misses (Count)
system.victimcache.UpgradeReq.mshrMisses::total           36                       # number of UpgradeReq MSHR misses (Count)
system.victimcache.UpgradeReq.mshrMissLatency::cpu.data      1703000                       # number of UpgradeReq MSHR miss ticks (Tick)
system.victimcache.UpgradeReq.mshrMissLatency::total      1703000                       # number of UpgradeReq MSHR miss ticks (Tick)
system.victimcache.UpgradeReq.mshrMissRate::cpu.data            1                       # mshr miss rate for UpgradeReq accesses (Ratio)
system.victimcache.UpgradeReq.mshrMissRate::total            1                       # mshr miss rate for UpgradeReq accesses (Ratio)
system.victimcache.UpgradeReq.avgMshrMissLatency::cpu.data 47305.555556                       # average UpgradeReq mshr miss latency ((Tick/Count))
system.victimcache.UpgradeReq.avgMshrMissLatency::total 47305.555556                       # average UpgradeReq mshr miss latency ((Tick/Count))
system.victimcache.WritebackClean.hits::writebacks          948                       # number of WritebackClean hits (Count)
system.victimcache.WritebackClean.hits::total          948                       # number of WritebackClean hits (Count)
system.victimcache.WritebackClean.accesses::writebacks          948                       # number of WritebackClean accesses(hits+misses) (Count)
system.victimcache.WritebackClean.accesses::total          948                       # number of WritebackClean accesses(hits+misses) (Count)
system.victimcache.WritebackDirty.hits::writebacks         4809                       # number of WritebackDirty hits (Count)
system.victimcache.WritebackDirty.hits::total         4809                       # number of WritebackDirty hits (Count)
system.victimcache.WritebackDirty.accesses::writebacks         4809                       # number of WritebackDirty accesses(hits+misses) (Count)
system.victimcache.WritebackDirty.accesses::total         4809                       # number of WritebackDirty accesses(hits+misses) (Count)
system.victimcache.power_state.pwrStateResidencyTicks::UNDEFINED    198461000                       # Cumulative time (in ticks) in various power states (Tick)
system.victimcache.tags.tagsInUse           14.629242                       # Average ticks per tags in use ((Tick/Count))
system.victimcache.tags.totalRefs                8371                       # Total number of references to valid blocks. (Count)
system.victimcache.tags.sampledRefs              5689                       # Sample count of references to valid blocks. (Count)
system.victimcache.tags.avgRefs              1.471436                       # Average number of references to valid blocks. ((Count/Count))
system.victimcache.tags.warmupTick           11305000                       # The tick when the warmup percentage was hit. (Tick)
system.victimcache.tags.occupancies::writebacks    14.629242                       # Average occupied blocks per tick, per requestor ((Count/Tick))
system.victimcache.tags.avgOccs::writebacks     0.914328                       # Average percentage of cache occupancy ((Ratio/Tick))
system.victimcache.tags.avgOccs::total       0.914328                       # Average percentage of cache occupancy ((Ratio/Tick))
system.victimcache.tags.occupanciesTaskId::1024           16                       # Occupied blocks per task id (Count)
system.victimcache.tags.ageTaskId_1024::0           16                       # Occupied blocks per task id, per block age (Count)
system.victimcache.tags.ratioOccsTaskId::1024            1                       # Ratio of occupied blocks and all blocks, per task id (Ratio)
system.victimcache.tags.tagAccesses            192505                       # Number of tag accesses (Count)
system.victimcache.tags.dataAccesses           192505                       # Number of data accesses (Count)
system.victimcache.tags.power_state.pwrStateResidencyTicks::UNDEFINED    198461000                       # Cumulative time (in ticks) in various power states (Tick)
system.workload.inst.arm                            0                       # number of arm instructions executed (Count)
system.workload.inst.quiesce                        0                       # number of quiesce instructions executed (Count)

---------- End Simulation Statistics   ----------
