
---------- Begin Simulation Statistics ----------
simSeconds                                   0.001690                       # Number of seconds simulated (Second)
simTicks                                   1689509000                       # Number of ticks simulated (Tick)
finalTick                                  1689509000                       # Number of ticks from beginning of simulation (restored from checkpoints and never reset) (Tick)
simFreq                                  1000000000000                       # The number of ticks per simulated second ((Tick/Second))
hostSeconds                                      9.22                       # Real time elapsed on the host (Second)
hostTickRate                                183181780                       # The number of ticks simulated per host second (ticks/s) ((Tick/Second))
hostMemory                                     645988                       # Number of bytes of host memory used (Byte)
simInsts                                      4104587                       # Number of instructions simulated (Count)
simOps                                        7389469                       # Number of ops (including micro ops) simulated (Count)
hostInstRate                                   445027                       # Simulator instruction rate (inst/s) ((Count/Second))
hostOpRate                                     801180                       # Simulator op (including micro ops) rate (op/s) ((Count/Second))
system.clk_domain.clock                          1000                       # Clock period in ticks (Tick)
system.clk_domain.voltage_domain.voltage            1                       # Voltage in Volts (Volt)
system.cpu.numCycles                          1689510                       # Number of cpu cycles simulated (Cycle)
system.cpu.numWorkItemsStarted                      0                       # Number of work items this cpu started (Count)
system.cpu.numWorkItemsCompleted                    0                       # Number of work items this cpu completed (Count)
system.cpu.instsAdded                         7402602                       # Number of instructions added to the IQ (excludes non-spec) (Count)
system.cpu.nonSpecInstsAdded                       10                       # Number of non-speculative instructions added to the IQ (Count)
system.cpu.instsIssued                        7399540                       # Number of instructions issued (Count)
system.cpu.squashedInstsIssued                     24                       # Number of squashed instructions issued (Count)
system.cpu.squashedInstsExamined                13137                       # Number of squashed instructions iterated over during squash; mainly for profiling (Count)
system.cpu.squashedOperandsExamined             14746                       # Number of squashed operands that are examined and possibly removed from graph (Count)
system.cpu.squashedNonSpecRemoved                  10                       # Number of squashed non-spec instructions that were removed (Count)
system.cpu.numIssuedDist::samples             1669574                       # Number of insts issued each cycle (Count)
system.cpu.numIssuedDist::mean               4.431993                       # Number of insts issued each cycle (Count)
system.cpu.numIssuedDist::stdev              1.584735                       # Number of insts issued each cycle (Count)
system.cpu.numIssuedDist::underflows                0      0.00%      0.00% # Number of insts issued each cycle (Count)
system.cpu.numIssuedDist::0                     23371      1.40%      1.40% # Number of insts issued each cycle (Count)
system.cpu.numIssuedDist::1                      1837      0.11%      1.51% # Number of insts issued each cycle (Count)
system.cpu.numIssuedDist::2                      1281      0.08%      1.59% # Number of insts issued each cycle (Count)
system.cpu.numIssuedDist::3                    820360     49.14%     50.72% # Number of insts issued each cycle (Count)
system.cpu.numIssuedDist::4                      1106      0.07%     50.79% # Number of insts issued each cycle (Count)
system.cpu.numIssuedDist::5                       978      0.06%     50.85% # Number of insts issued each cycle (Count)
system.cpu.numIssuedDist::6                    819996     49.11%     99.96% # Number of insts issued each cycle (Count)
system.cpu.numIssuedDist::7                       389      0.02%     99.98% # Number of insts issued each cycle (Count)
system.cpu.numIssuedDist::8                       256      0.02%    100.00% # Number of insts issued each cycle (Count)
system.cpu.numIssuedDist::overflows                 0      0.00%    100.00% # Number of insts issued each cycle (Count)
system.cpu.numIssuedDist::min_value                 0                       # Number of insts issued each cycle (Count)
system.cpu.numIssuedDist::max_value                 8                       # Number of insts issued each cycle (Count)
system.cpu.numIssuedDist::total               1669574                       # Number of insts issued each cycle (Count)
system.cpu.statFuBusy::No_OpClass                   0      0.00%      0.00% # attempts to use FU when none available (Count)
system.cpu.statFuBusy::IntAlu                     213     75.00%     75.00% # attempts to use FU when none available (Count)
system.cpu.statFuBusy::IntMult                      0      0.00%     75.00% # attempts to use FU when none available (Count)
system.cpu.statFuBusy::IntDiv                       0      0.00%     75.00% # attempts to use FU when none available (Count)
system.cpu.statFuBusy::FloatAdd                     0      0.00%     75.00% # attempts to use FU when none available (Count)
system.cpu.statFuBusy::FloatCmp                     0      0.00%     75.00% # attempts to use FU when none available (Count)
system.cpu.statFuBusy::FloatCvt                     0      0.00%     75.00% # attempts to use FU when none available (Count)
system.cpu.statFuBusy::FloatMult                    0      0.00%     75.00% # attempts to use FU when none available (Count)
system.cpu.statFuBusy::FloatMultAcc                 0      0.00%     75.00% # attempts to use FU when none available (Count)
system.cpu.statFuBusy::FloatDiv                     0      0.00%     75.00% # attempts to use FU when none available (Count)
system.cpu.statFuBusy::FloatMisc                    0      0.00%     75.00% # attempts to use FU when none available (Count)
system.cpu.statFuBusy::FloatSqrt                    0      0.00%     75.00% # attempts to use FU when none available (Count)
system.cpu.statFuBusy::SimdAdd                      0      0.00%     75.00% # attempts to use FU when none available (Count)
system.cpu.statFuBusy::SimdAddAcc                   0      0.00%     75.00% # attempts to use FU when none available (Count)
system.cpu.statFuBusy::SimdAlu                     10      3.52%     78.52% # attempts to use FU when none available (Count)
system.cpu.statFuBusy::SimdCmp                      0      0.00%     78.52% # attempts to use FU when none available (Count)
system.cpu.statFuBusy::SimdCvt                      2      0.70%     79.23% # attempts to use FU when none available (Count)
system.cpu.statFuBusy::SimdMisc                     2      0.70%     79.93% # attempts to use FU when none available (Count)
system.cpu.statFuBusy::SimdMult                     0      0.00%     79.93% # attempts to use FU when none available (Count)
system.cpu.statFuBusy::SimdMultAcc                  0      0.00%     79.93% # attempts to use FU when none available (Count)
system.cpu.statFuBusy::SimdShift                    0      0.00%     79.93% # attempts to use FU when none available (Count)
system.cpu.statFuBusy::SimdShiftAcc                 0      0.00%     79.93% # attempts to use FU when none available (Count)
system.cpu.statFuBusy::SimdDiv                      0      0.00%     79.93% # attempts to use FU when none available (Count)
system.cpu.statFuBusy::SimdSqrt                     0      0.00%     79.93% # attempts to use FU when none available (Count)
system.cpu.statFuBusy::SimdFloatAdd                 0      0.00%     79.93% # attempts to use FU when none available (Count)
system.cpu.statFuBusy::SimdFloatAlu                 0      0.00%     79.93% # attempts to use FU when none available (Count)
system.cpu.statFuBusy::SimdFloatCmp                 0      0.00%     79.93% # attempts to use FU when none available (Count)
system.cpu.statFuBusy::SimdFloatCvt                 0      0.00%     79.93% # attempts to use FU when none available (Count)
system.cpu.statFuBusy::SimdFloatDiv                 0      0.00%     79.93% # attempts to use FU when none available (Count)
system.cpu.statFuBusy::SimdFloatMisc                0      0.00%     79.93% # attempts to use FU when none available (Count)
system.cpu.statFuBusy::SimdFloatMult                0      0.00%     79.93% # attempts to use FU when none available (Count)
system.cpu.statFuBusy::SimdFloatMultAcc             0      0.00%     79.93% # attempts to use FU when none available (Count)
system.cpu.statFuBusy::SimdFloatSqrt                0      0.00%     79.93% # attempts to use FU when none available (Count)
system.cpu.statFuBusy::SimdReduceAdd                0      0.00%     79.93% # attempts to use FU when none available (Count)
system.cpu.statFuBusy::SimdReduceAlu                0      0.00%     79.93% # attempts to use FU when none available (Count)
system.cpu.statFuBusy::SimdReduceCmp                0      0.00%     79.93% # attempts to use FU when none available (Count)
system.cpu.statFuBusy::SimdFloatReduceAdd            0      0.00%     79.93% # attempts to use FU when none available (Count)
system.cpu.statFuBusy::SimdFloatReduceCmp            0      0.00%     79.93% # attempts to use FU when none available (Count)
system.cpu.statFuBusy::SimdAes                      0      0.00%     79.93% # attempts to use FU when none available (Count)
system.cpu.statFuBusy::SimdAesMix                   0      0.00%     79.93% # attempts to use FU when none available (Count)
system.cpu.statFuBusy::SimdSha1Hash                 0      0.00%     79.93% # attempts to use FU when none available (Count)
system.cpu.statFuBusy::SimdSha1Hash2                0      0.00%     79.93% # attempts to use FU when none available (Count)
system.cpu.statFuBusy::SimdSha256Hash               0      0.00%     79.93% # attempts to use FU when none available (Count)
system.cpu.statFuBusy::SimdSha256Hash2              0      0.00%     79.93% # attempts to use FU when none available (Count)
system.cpu.statFuBusy::SimdShaSigma2                0      0.00%     79.93% # attempts to use FU when none available (Count)
system.cpu.statFuBusy::SimdShaSigma3                0      0.00%     79.93% # attempts to use FU when none available (Count)
system.cpu.statFuBusy::SimdPredAlu                  0      0.00%     79.93% # attempts to use FU when none available (Count)
system.cpu.statFuBusy::MemRead                     27      9.51%     89.44% # attempts to use FU when none available (Count)
system.cpu.statFuBusy::MemWrite                    14      4.93%     94.37% # attempts to use FU when none available (Count)
system.cpu.statFuBusy::FloatMemRead                 7      2.46%     96.83% # attempts to use FU when none available (Count)
system.cpu.statFuBusy::FloatMemWrite                9      3.17%    100.00% # attempts to use FU when none available (Count)
system.cpu.statFuBusy::IprAccess                    0      0.00%    100.00% # attempts to use FU when none available (Count)
system.cpu.statFuBusy::InstPrefetch                 0      0.00%    100.00% # attempts to use FU when none available (Count)
system.cpu.statIssuedInstType_0::No_OpClass          719      0.01%      0.01% # Number of instructions issued per FU type, per thread (Count)
system.cpu.statIssuedInstType_0::IntAlu       7393119     99.91%     99.92% # Number of instructions issued per FU type, per thread (Count)
system.cpu.statIssuedInstType_0::IntMult            6      0.00%     99.92% # Number of instructions issued per FU type, per thread (Count)
system.cpu.statIssuedInstType_0::IntDiv            29      0.00%     99.92% # Number of instructions issued per FU type, per thread (Count)
system.cpu.statIssuedInstType_0::FloatAdd          136      0.00%     99.93% # Number of instructions issued per FU type, per thread (Count)
system.cpu.statIssuedInstType_0::FloatCmp            0      0.00%     99.93% # Number of instructions issued per FU type, per thread (Count)
system.cpu.statIssuedInstType_0::FloatCvt            0      0.00%     99.93% # Number of instructions issued per FU type, per thread (Count)
system.cpu.statIssuedInstType_0::FloatMult            0      0.00%     99.93% # Number of instructions issued per FU type, per thread (Count)
system.cpu.statIssuedInstType_0::FloatMultAcc            0      0.00%     99.93% # Number of instructions issued per FU type, per thread (Count)
system.cpu.statIssuedInstType_0::FloatDiv            0      0.00%     99.93% # Number of instructions issued per FU type, per thread (Count)
system.cpu.statIssuedInstType_0::FloatMisc            0      0.00%     99.93% # Number of instructions issued per FU type, per thread (Count)
system.cpu.statIssuedInstType_0::FloatSqrt            0      0.00%     99.93% # Number of instructions issued per FU type, per thread (Count)
system.cpu.statIssuedInstType_0::SimdAdd            0      0.00%     99.93% # Number of instructions issued per FU type, per thread (Count)
system.cpu.statIssuedInstType_0::SimdAddAcc            0      0.00%     99.93% # Number of instructions issued per FU type, per thread (Count)
system.cpu.statIssuedInstType_0::SimdAlu          154      0.00%     99.93% # Number of instructions issued per FU type, per thread (Count)
system.cpu.statIssuedInstType_0::SimdCmp            0      0.00%     99.93% # Number of instructions issued per FU type, per thread (Count)
system.cpu.statIssuedInstType_0::SimdCvt           46      0.00%     99.93% # Number of instructions issued per FU type, per thread (Count)
system.cpu.statIssuedInstType_0::SimdMisc          216      0.00%     99.93% # Number of instructions issued per FU type, per thread (Count)
system.cpu.statIssuedInstType_0::SimdMult            0      0.00%     99.93% # Number of instructions issued per FU type, per thread (Count)
system.cpu.statIssuedInstType_0::SimdMultAcc            0      0.00%     99.93% # Number of instructions issued per FU type, per thread (Count)
system.cpu.statIssuedInstType_0::SimdShift            0      0.00%     99.93% # Number of instructions issued per FU type, per thread (Count)
system.cpu.statIssuedInstType_0::SimdShiftAcc            0      0.00%     99.93% # Number of instructions issued per FU type, per thread (Count)
system.cpu.statIssuedInstType_0::SimdDiv            0      0.00%     99.93% # Number of instructions issued per FU type, per thread (Count)
system.cpu.statIssuedInstType_0::SimdSqrt            0      0.00%     99.93% # Number of instructions issued per FU type, per thread (Count)
system.cpu.statIssuedInstType_0::SimdFloatAdd            0      0.00%     99.93% # Number of instructions issued per FU type, per thread (Count)
system.cpu.statIssuedInstType_0::SimdFloatAlu            0      0.00%     99.93% # Number of instructions issued per FU type, per thread (Count)
system.cpu.statIssuedInstType_0::SimdFloatCmp            0      0.00%     99.93% # Number of instructions issued per FU type, per thread (Count)
system.cpu.statIssuedInstType_0::SimdFloatCvt            0      0.00%     99.93% # Number of instructions issued per FU type, per thread (Count)
system.cpu.statIssuedInstType_0::SimdFloatDiv            0      0.00%     99.93% # Number of instructions issued per FU type, per thread (Count)
system.cpu.statIssuedInstType_0::SimdFloatMisc            0      0.00%     99.93% # Number of instructions issued per FU type, per thread (Count)
system.cpu.statIssuedInstType_0::SimdFloatMult            0      0.00%     99.93% # Number of instructions issued per FU type, per thread (Count)
system.cpu.statIssuedInstType_0::SimdFloatMultAcc            0      0.00%     99.93% # Number of instructions issued per FU type, per thread (Count)
system.cpu.statIssuedInstType_0::SimdFloatSqrt            0      0.00%     99.93% # Number of instructions issued per FU type, per thread (Count)
system.cpu.statIssuedInstType_0::SimdReduceAdd            0      0.00%     99.93% # Number of instructions issued per FU type, per thread (Count)
system.cpu.statIssuedInstType_0::SimdReduceAlu            0      0.00%     99.93% # Number of instructions issued per FU type, per thread (Count)
system.cpu.statIssuedInstType_0::SimdReduceCmp            0      0.00%     99.93% # Number of instructions issued per FU type, per thread (Count)
system.cpu.statIssuedInstType_0::SimdFloatReduceAdd            0      0.00%     99.93% # Number of instructions issued per FU type, per thread (Count)
system.cpu.statIssuedInstType_0::SimdFloatReduceCmp            0      0.00%     99.93% # Number of instructions issued per FU type, per thread (Count)
system.cpu.statIssuedInstType_0::SimdAes            0      0.00%     99.93% # Number of instructions issued per FU type, per thread (Count)
system.cpu.statIssuedInstType_0::SimdAesMix            0      0.00%     99.93% # Number of instructions issued per FU type, per thread (Count)
system.cpu.statIssuedInstType_0::SimdSha1Hash            0      0.00%     99.93% # Number of instructions issued per FU type, per thread (Count)
system.cpu.statIssuedInstType_0::SimdSha1Hash2            0      0.00%     99.93% # Number of instructions issued per FU type, per thread (Count)
system.cpu.statIssuedInstType_0::SimdSha256Hash            0      0.00%     99.93% # Number of instructions issued per FU type, per thread (Count)
system.cpu.statIssuedInstType_0::SimdSha256Hash2            0      0.00%     99.93% # Number of instructions issued per FU type, per thread (Count)
system.cpu.statIssuedInstType_0::SimdShaSigma2            0      0.00%     99.93% # Number of instructions issued per FU type, per thread (Count)
system.cpu.statIssuedInstType_0::SimdShaSigma3            0      0.00%     99.93% # Number of instructions issued per FU type, per thread (Count)
system.cpu.statIssuedInstType_0::SimdPredAlu            0      0.00%     99.93% # Number of instructions issued per FU type, per thread (Count)
system.cpu.statIssuedInstType_0::MemRead         2777      0.04%     99.97% # Number of instructions issued per FU type, per thread (Count)
system.cpu.statIssuedInstType_0::MemWrite         1714      0.02%     99.99% # Number of instructions issued per FU type, per thread (Count)
system.cpu.statIssuedInstType_0::FloatMemRead           88      0.00%     99.99% # Number of instructions issued per FU type, per thread (Count)
system.cpu.statIssuedInstType_0::FloatMemWrite          536      0.01%    100.00% # Number of instructions issued per FU type, per thread (Count)
system.cpu.statIssuedInstType_0::IprAccess            0      0.00%    100.00% # Number of instructions issued per FU type, per thread (Count)
system.cpu.statIssuedInstType_0::InstPrefetch            0      0.00%    100.00% # Number of instructions issued per FU type, per thread (Count)
system.cpu.statIssuedInstType_0::total        7399540                       # Number of instructions issued per FU type, per thread (Count)
system.cpu.issueRate                         4.379696                       # Inst issue rate ((Count/Cycle))
system.cpu.fuBusy                                 284                       # FU busy when requested (Count)
system.cpu.fuBusyRate                        0.000038                       # FU busy rate (busy events/executed inst) ((Count/Count))
system.cpu.intInstQueueReads                 16466295                       # Number of integer instruction queue reads (Count)
system.cpu.intInstQueueWrites                 7414240                       # Number of integer instruction queue writes (Count)
system.cpu.intInstQueueWakeupAccesses         7396705                       # Number of integer instruction queue wakeup accesses (Count)
system.cpu.fpInstQueueReads                      2667                       # Number of floating instruction queue reads (Count)
system.cpu.fpInstQueueWrites                     1521                       # Number of floating instruction queue writes (Count)
system.cpu.fpInstQueueWakeupAccesses             1272                       # Number of floating instruction queue wakeup accesses (Count)
system.cpu.vecInstQueueReads                        0                       # Number of vector instruction queue reads (Count)
system.cpu.vecInstQueueWrites                       0                       # Number of vector instruction queue writes (Count)
system.cpu.vecInstQueueWakeupAccesses               0                       # Number of vector instruction queue wakeup accesses (Count)
system.cpu.intAluAccesses                     7397759                       # Number of integer alu accesses (Count)
system.cpu.fpAluAccesses                         1346                       # Number of floating point alu accesses (Count)
system.cpu.vecAluAccesses                           0                       # Number of vector alu accesses (Count)
system.cpu.idleCycles                               0                       # Number of cycles IEW is idle (Cycle)
system.cpu.squashCycles                           651                       # Number of cycles IEW is squashing (Cycle)
system.cpu.blockCycles                           1804                       # Number of cycles IEW is blocking (Cycle)
system.cpu.unblockCycles                          739                       # Number of cycles IEW is unblocking (Cycle)
system.cpu.dispatchedInsts                    7402612                       # Number of instructions dispatched to IQ (Count)
system.cpu.dispSquashedInsts                       90                       # Number of squashed instructions skipped by dispatch (Count)
system.cpu.dispLoadInsts                         3117                       # Number of dispatched load instructions (Count)
system.cpu.dispStoreInsts                        2597                       # Number of dispatched store instructions (Count)
system.cpu.dispNonSpecInsts                         4                       # Number of dispatched non-speculative instructions (Count)
system.cpu.iqFullEvents                            12                       # Number of times the IQ has become full, causing a stall (Count)
system.cpu.lsqFullEvents                          724                       # Number of times the LSQ has become full, causing a stall (Count)
system.cpu.memOrderViolationEvents                 21                       # Number of memory order violations (Count)
system.cpu.predictedTakenIncorrect                 83                       # Number of branches that were predicted taken incorrectly (Count)
system.cpu.predictedNotTakenIncorrect             656                       # Number of branches that were predicted not taken incorrectly (Count)
system.cpu.branchMispredicts                      739                       # Number of branch mispredicts detected at execute (Count)
system.cpu.numInsts                           7398727                       # Number of executed instructions (Count)
system.cpu.numLoadInsts                          2740                       # Number of load instructions executed (Count)
system.cpu.numSquashedInsts                       813                       # Number of squashed instructions skipped in execute (Count)
system.cpu.numSwp                                   0                       # Number of swp insts executed (Count)
system.cpu.numNop                                   0                       # Number of nop insts executed (Count)
system.cpu.numRefs                               4911                       # Number of memory reference insts executed (Count)
system.cpu.numBranches                         821718                       # Number of branches executed (Count)
system.cpu.numStoreInsts                         2171                       # Number of stores executed (Count)
system.cpu.numRate                           4.379215                       # Inst execution rate ((Count/Cycle))
system.cpu.instsToCommit                      7398364                       # Cumulative count of insts sent to commit (Count)
system.cpu.writebackCount                     7397977                       # Cumulative count of insts written-back (Count)
system.cpu.producerInst                       6570894                       # Number of instructions producing a value (Count)
system.cpu.consumerInst                      11495441                       # Number of instructions consuming a value (Count)
system.cpu.wbRate                            4.378771                       # Insts written-back per cycle ((Count/Cycle))
system.cpu.wbFanout                          0.571609                       # Average fanout of values written-back ((Count/Count))
system.cpu.timesIdled                             304                       # Number of times that the entire CPU went into an idle state and unscheduled itself (Count)
system.cpu.idleCycles                           19936                       # Total number of cycles that the CPU has spent unscheduled due to idling (Cycle)
system.cpu.committedInsts                     4104587                       # Number of Instructions Simulated (Count)
system.cpu.committedOps                       7389469                       # Number of Ops (including micro ops) Simulated (Count)
system.cpu.cpi                               0.411615                       # CPI: Cycles Per Instruction ((Cycle/Count))
system.cpu.totalCpi                          0.411615                       # CPI: Total CPI of All Threads ((Cycle/Count))
system.cpu.ipc                               2.429454                       # IPC: Instructions Per Cycle ((Count/Cycle))
system.cpu.totalIpc                          2.429454                       # IPC: Total IPC of All Threads ((Count/Cycle))
system.cpu.intRegfileReads                    9865002                       # Number of integer regfile reads (Count)
system.cpu.intRegfileWrites                   6573028                       # Number of integer regfile writes (Count)
system.cpu.fpRegfileReads                        1518                       # Number of floating regfile reads (Count)
system.cpu.fpRegfileWrites                        707                       # Number of floating regfile writes (Count)
system.cpu.ccRegfileReads                     4107372                       # number of cc regfile reads (Count)
system.cpu.ccRegfileWrites                    3284220                       # number of cc regfile writes (Count)
system.cpu.miscRegfileReads                   1649375                       # number of misc regfile reads (Count)
system.cpu.MemDepUnit__0.insertedLoads           3117                       # Number of loads inserted to the mem dependence unit. (Count)
system.cpu.MemDepUnit__0.insertedStores          2597                       # Number of stores inserted to the mem dependence unit. (Count)
system.cpu.MemDepUnit__0.conflictingLoads           28                       # Number of conflicting loads. (Count)
system.cpu.MemDepUnit__0.conflictingStores           20                       # Number of conflicting stores. (Count)
system.cpu.MemDepUnit__1.insertedLoads              0                       # Number of loads inserted to the mem dependence unit. (Count)
system.cpu.MemDepUnit__1.insertedStores             0                       # Number of stores inserted to the mem dependence unit. (Count)
system.cpu.MemDepUnit__1.conflictingLoads            0                       # Number of conflicting loads. (Count)
system.cpu.MemDepUnit__1.conflictingStores            0                       # Number of conflicting stores. (Count)
system.cpu.MemDepUnit__2.insertedLoads              0                       # Number of loads inserted to the mem dependence unit. (Count)
system.cpu.MemDepUnit__2.insertedStores             0                       # Number of stores inserted to the mem dependence unit. (Count)
system.cpu.MemDepUnit__2.conflictingLoads            0                       # Number of conflicting loads. (Count)
system.cpu.MemDepUnit__2.conflictingStores            0                       # Number of conflicting stores. (Count)
system.cpu.MemDepUnit__3.insertedLoads              0                       # Number of loads inserted to the mem dependence unit. (Count)
system.cpu.MemDepUnit__3.insertedStores             0                       # Number of stores inserted to the mem dependence unit. (Count)
system.cpu.MemDepUnit__3.conflictingLoads            0                       # Number of conflicting loads. (Count)
system.cpu.MemDepUnit__3.conflictingStores            0                       # Number of conflicting stores. (Count)
system.cpu.branchPred.lookups                  823405                       # Number of BP lookups (Count)
system.cpu.branchPred.condPredicted            822179                       # Number of conditional branches predicted (Count)
system.cpu.branchPred.condIncorrect               720                       # Number of conditional branches incorrect (Count)
system.cpu.branchPred.BTBLookups               821233                       # Number of BTB lookups (Count)
system.cpu.branchPred.BTBHits                  820529                       # Number of BTB hits (Count)
system.cpu.branchPred.BTBHitRatio            0.999143                       # BTB Hit Ratio (Ratio)
system.cpu.branchPred.RASUsed                     283                       # Number of times the RAS was used to get a target. (Count)
system.cpu.branchPred.RASIncorrect                  0                       # Number of incorrect RAS predictions. (Count)
system.cpu.branchPred.indirectLookups             317                       # Number of indirect predictor lookups. (Count)
system.cpu.branchPred.indirectHits                 10                       # Number of indirect target hits. (Count)
system.cpu.branchPred.indirectMisses              307                       # Number of indirect misses. (Count)
system.cpu.branchPred.indirectMispredicted           93                       # Number of mispredicted indirect branches. (Count)
system.cpu.commit.commitSquashedInsts           13049                       # The number of squashed insts skipped by commit (Count)
system.cpu.commit.branchMispredicts               627                       # The number of times a branch was mispredicted (Count)
system.cpu.commit.numCommittedDist::samples      1667450                       # Number of insts commited each cycle (Count)
system.cpu.commit.numCommittedDist::mean     4.431599                       # Number of insts commited each cycle (Count)
system.cpu.commit.numCommittedDist::stdev     0.742314                       # Number of insts commited each cycle (Count)
system.cpu.commit.numCommittedDist::underflows            0      0.00%      0.00% # Number of insts commited each cycle (Count)
system.cpu.commit.numCommittedDist::0           23745      1.42%      1.42% # Number of insts commited each cycle (Count)
system.cpu.commit.numCommittedDist::1            1636      0.10%      1.52% # Number of insts commited each cycle (Count)
system.cpu.commit.numCommittedDist::2             860      0.05%      1.57% # Number of insts commited each cycle (Count)
system.cpu.commit.numCommittedDist::3            1173      0.07%      1.64% # Number of insts commited each cycle (Count)
system.cpu.commit.numCommittedDist::4          819683     49.16%     50.80% # Number of insts commited each cycle (Count)
system.cpu.commit.numCommittedDist::5          819468     49.14%     99.95% # Number of insts commited each cycle (Count)
system.cpu.commit.numCommittedDist::6             222      0.01%     99.96% # Number of insts commited each cycle (Count)
system.cpu.commit.numCommittedDist::7             114      0.01%     99.97% # Number of insts commited each cycle (Count)
system.cpu.commit.numCommittedDist::8             549      0.03%    100.00% # Number of insts commited each cycle (Count)
system.cpu.commit.numCommittedDist::overflows            0      0.00%    100.00% # Number of insts commited each cycle (Count)
system.cpu.commit.numCommittedDist::min_value            0                       # Number of insts commited each cycle (Count)
system.cpu.commit.numCommittedDist::max_value            8                       # Number of insts commited each cycle (Count)
system.cpu.commit.numCommittedDist::total      1667450                       # Number of insts commited each cycle (Count)
system.cpu.commit.instsCommitted              4104587                       # Number of instructions committed (Count)
system.cpu.commit.opsCommitted                7389469                       # Number of ops (including micro ops) committed (Count)
system.cpu.commit.memRefs                        3186                       # Number of memory references committed (Count)
system.cpu.commit.loads                          1550                       # Number of loads committed (Count)
system.cpu.commit.amos                              0                       # Number of atomic instructions committed (Count)
system.cpu.commit.membars                           0                       # Number of memory barriers committed (Count)
system.cpu.commit.branches                     821007                       # Number of branches committed (Count)
system.cpu.commit.vectorInstructions                0                       # Number of committed Vector instructions. (Count)
system.cpu.commit.floating                       1149                       # Number of committed floating point instructions. (Count)
system.cpu.commit.integer                     7388687                       # Number of committed integer instructions. (Count)
system.cpu.commit.functionCalls                   150                       # Number of function calls committed. (Count)
system.cpu.commit.committedInstType_0::No_OpClass          227      0.00%      0.00% # Class of committed instruction (Count)
system.cpu.commit.committedInstType_0::IntAlu      7385540     99.95%     99.95% # Class of committed instruction (Count)
system.cpu.commit.committedInstType_0::IntMult            5      0.00%     99.95% # Class of committed instruction (Count)
system.cpu.commit.committedInstType_0::IntDiv           21      0.00%     99.95% # Class of committed instruction (Count)
system.cpu.commit.committedInstType_0::FloatAdd          135      0.00%     99.95% # Class of committed instruction (Count)
system.cpu.commit.committedInstType_0::FloatCmp            0      0.00%     99.95% # Class of committed instruction (Count)
system.cpu.commit.committedInstType_0::FloatCvt            0      0.00%     99.95% # Class of committed instruction (Count)
system.cpu.commit.committedInstType_0::FloatMult            0      0.00%     99.95% # Class of committed instruction (Count)
system.cpu.commit.committedInstType_0::FloatMultAcc            0      0.00%     99.95% # Class of committed instruction (Count)
system.cpu.commit.committedInstType_0::FloatDiv            0      0.00%     99.95% # Class of committed instruction (Count)
system.cpu.commit.committedInstType_0::FloatMisc            0      0.00%     99.95% # Class of committed instruction (Count)
system.cpu.commit.committedInstType_0::FloatSqrt            0      0.00%     99.95% # Class of committed instruction (Count)
system.cpu.commit.committedInstType_0::SimdAdd            0      0.00%     99.95% # Class of committed instruction (Count)
system.cpu.commit.committedInstType_0::SimdAddAcc            0      0.00%     99.95% # Class of committed instruction (Count)
system.cpu.commit.committedInstType_0::SimdAlu           94      0.00%     99.95% # Class of committed instruction (Count)
system.cpu.commit.committedInstType_0::SimdCmp            0      0.00%     99.95% # Class of committed instruction (Count)
system.cpu.commit.committedInstType_0::SimdCvt           46      0.00%     99.95% # Class of committed instruction (Count)
system.cpu.commit.committedInstType_0::SimdMisc          215      0.00%     99.96% # Class of committed instruction (Count)
system.cpu.commit.committedInstType_0::SimdMult            0      0.00%     99.96% # Class of committed instruction (Count)
system.cpu.commit.committedInstType_0::SimdMultAcc            0      0.00%     99.96% # Class of committed instruction (Count)
system.cpu.commit.committedInstType_0::SimdShift            0      0.00%     99.96% # Class of committed instruction (Count)
system.cpu.commit.committedInstType_0::SimdShiftAcc            0      0.00%     99.96% # Class of committed instruction (Count)
system.cpu.commit.committedInstType_0::SimdDiv            0      0.00%     99.96% # Class of committed instruction (Count)
system.cpu.commit.committedInstType_0::SimdSqrt            0      0.00%     99.96% # Class of committed instruction (Count)
system.cpu.commit.committedInstType_0::SimdFloatAdd            0      0.00%     99.96% # Class of committed instruction (Count)
system.cpu.commit.committedInstType_0::SimdFloatAlu            0      0.00%     99.96% # Class of committed instruction (Count)
system.cpu.commit.committedInstType_0::SimdFloatCmp            0      0.00%     99.96% # Class of committed instruction (Count)
system.cpu.commit.committedInstType_0::SimdFloatCvt            0      0.00%     99.96% # Class of committed instruction (Count)
system.cpu.commit.committedInstType_0::SimdFloatDiv            0      0.00%     99.96% # Class of committed instruction (Count)
system.cpu.commit.committedInstType_0::SimdFloatMisc            0      0.00%     99.96% # Class of committed instruction (Count)
system.cpu.commit.committedInstType_0::SimdFloatMult            0      0.00%     99.96% # Class of committed instruction (Count)
system.cpu.commit.committedInstType_0::SimdFloatMultAcc            0      0.00%     99.96% # Class of committed instruction (Count)
system.cpu.commit.committedInstType_0::SimdFloatSqrt            0      0.00%     99.96% # Class of committed instruction (Count)
system.cpu.commit.committedInstType_0::SimdReduceAdd            0      0.00%     99.96% # Class of committed instruction (Count)
system.cpu.commit.committedInstType_0::SimdReduceAlu            0      0.00%     99.96% # Class of committed instruction (Count)
system.cpu.commit.committedInstType_0::SimdReduceCmp            0      0.00%     99.96% # Class of committed instruction (Count)
system.cpu.commit.committedInstType_0::SimdFloatReduceAdd            0      0.00%     99.96% # Class of committed instruction (Count)
system.cpu.commit.committedInstType_0::SimdFloatReduceCmp            0      0.00%     99.96% # Class of committed instruction (Count)
system.cpu.commit.committedInstType_0::SimdAes            0      0.00%     99.96% # Class of committed instruction (Count)
system.cpu.commit.committedInstType_0::SimdAesMix            0      0.00%     99.96% # Class of committed instruction (Count)
system.cpu.commit.committedInstType_0::SimdSha1Hash            0      0.00%     99.96% # Class of committed instruction (Count)
system.cpu.commit.committedInstType_0::SimdSha1Hash2            0      0.00%     99.96% # Class of committed instruction (Count)
system.cpu.commit.committedInstType_0::SimdSha256Hash            0      0.00%     99.96% # Class of committed instruction (Count)
system.cpu.commit.committedInstType_0::SimdSha256Hash2            0      0.00%     99.96% # Class of committed instruction (Count)
system.cpu.commit.committedInstType_0::SimdShaSigma2            0      0.00%     99.96% # Class of committed instruction (Count)
system.cpu.commit.committedInstType_0::SimdShaSigma3            0      0.00%     99.96% # Class of committed instruction (Count)
system.cpu.commit.committedInstType_0::SimdPredAlu            0      0.00%     99.96% # Class of committed instruction (Count)
system.cpu.commit.committedInstType_0::MemRead         1496      0.02%     99.98% # Class of committed instruction (Count)
system.cpu.commit.committedInstType_0::MemWrite         1170      0.02%     99.99% # Class of committed instruction (Count)
system.cpu.commit.committedInstType_0::FloatMemRead           54      0.00%     99.99% # Class of committed instruction (Count)
system.cpu.commit.committedInstType_0::FloatMemWrite          466      0.01%    100.00% # Class of committed instruction (Count)
system.cpu.commit.committedInstType_0::IprAccess            0      0.00%    100.00% # Class of committed instruction (Count)
system.cpu.commit.committedInstType_0::InstPrefetch            0      0.00%    100.00% # Class of committed instruction (Count)
system.cpu.commit.committedInstType_0::total      7389469                       # Class of committed instruction (Count)
system.cpu.commit.commitEligibleSamples           549                       # number cycles where commit BW limit reached (Cycle)
system.cpu.dcache.demandHits::cpu.data           3551                       # number of demand (read+write) hits (Count)
system.cpu.dcache.demandHits::total              3551                       # number of demand (read+write) hits (Count)
system.cpu.dcache.overallHits::cpu.data          3551                       # number of overall hits (Count)
system.cpu.dcache.overallHits::total             3551                       # number of overall hits (Count)
system.cpu.dcache.demandMisses::cpu.data          494                       # number of demand (read+write) misses (Count)
system.cpu.dcache.demandMisses::total             494                       # number of demand (read+write) misses (Count)
system.cpu.dcache.overallMisses::cpu.data          494                       # number of overall misses (Count)
system.cpu.dcache.overallMisses::total            494                       # number of overall misses (Count)
system.cpu.dcache.demandMissLatency::cpu.data     43984999                       # number of demand (read+write) miss ticks (Tick)
system.cpu.dcache.demandMissLatency::total     43984999                       # number of demand (read+write) miss ticks (Tick)
system.cpu.dcache.overallMissLatency::cpu.data     43984999                       # number of overall miss ticks (Tick)
system.cpu.dcache.overallMissLatency::total     43984999                       # number of overall miss ticks (Tick)
system.cpu.dcache.demandAccesses::cpu.data         4045                       # number of demand (read+write) accesses (Count)
system.cpu.dcache.demandAccesses::total          4045                       # number of demand (read+write) accesses (Count)
system.cpu.dcache.overallAccesses::cpu.data         4045                       # number of overall (read+write) accesses (Count)
system.cpu.dcache.overallAccesses::total         4045                       # number of overall (read+write) accesses (Count)
system.cpu.dcache.demandMissRate::cpu.data     0.122126                       # miss rate for demand accesses (Ratio)
system.cpu.dcache.demandMissRate::total      0.122126                       # miss rate for demand accesses (Ratio)
system.cpu.dcache.overallMissRate::cpu.data     0.122126                       # miss rate for overall accesses (Ratio)
system.cpu.dcache.overallMissRate::total     0.122126                       # miss rate for overall accesses (Ratio)
system.cpu.dcache.demandAvgMissLatency::cpu.data 89038.459514                       # average overall miss latency ((Cycle/Count))
system.cpu.dcache.demandAvgMissLatency::total 89038.459514                       # average overall miss latency ((Cycle/Count))
system.cpu.dcache.overallAvgMissLatency::cpu.data 89038.459514                       # average overall miss latency ((Cycle/Count))
system.cpu.dcache.overallAvgMissLatency::total 89038.459514                       # average overall miss latency ((Cycle/Count))
system.cpu.dcache.blockedCycles::no_mshrs          496                       # number of cycles access was blocked (Cycle)
system.cpu.dcache.blockedCycles::no_targets            0                       # number of cycles access was blocked (Cycle)
system.cpu.dcache.blockedCauses::no_mshrs           20                       # number of times access was blocked (Count)
system.cpu.dcache.blockedCauses::no_targets            0                       # number of times access was blocked (Count)
system.cpu.dcache.avgBlocked::no_mshrs      24.800000                       # average number of cycles each access was blocked ((Cycle/Count))
system.cpu.dcache.avgBlocked::no_targets          nan                       # average number of cycles each access was blocked ((Cycle/Count))
system.cpu.dcache.writebacks::writebacks          154                       # number of writebacks (Count)
system.cpu.dcache.writebacks::total               154                       # number of writebacks (Count)
system.cpu.dcache.demandMshrHits::cpu.data          179                       # number of demand (read+write) MSHR hits (Count)
system.cpu.dcache.demandMshrHits::total           179                       # number of demand (read+write) MSHR hits (Count)
system.cpu.dcache.overallMshrHits::cpu.data          179                       # number of overall MSHR hits (Count)
system.cpu.dcache.overallMshrHits::total          179                       # number of overall MSHR hits (Count)
system.cpu.dcache.demandMshrMisses::cpu.data          315                       # number of demand (read+write) MSHR misses (Count)
system.cpu.dcache.demandMshrMisses::total          315                       # number of demand (read+write) MSHR misses (Count)
system.cpu.dcache.overallMshrMisses::cpu.data          315                       # number of overall MSHR misses (Count)
system.cpu.dcache.overallMshrMisses::total          315                       # number of overall MSHR misses (Count)
system.cpu.dcache.demandMshrMissLatency::cpu.data     29512999                       # number of demand (read+write) MSHR miss ticks (Tick)
system.cpu.dcache.demandMshrMissLatency::total     29512999                       # number of demand (read+write) MSHR miss ticks (Tick)
system.cpu.dcache.overallMshrMissLatency::cpu.data     29512999                       # number of overall MSHR miss ticks (Tick)
system.cpu.dcache.overallMshrMissLatency::total     29512999                       # number of overall MSHR miss ticks (Tick)
system.cpu.dcache.demandMshrMissRate::cpu.data     0.077874                       # mshr miss ratio for demand accesses (Ratio)
system.cpu.dcache.demandMshrMissRate::total     0.077874                       # mshr miss ratio for demand accesses (Ratio)
system.cpu.dcache.overallMshrMissRate::cpu.data     0.077874                       # mshr miss ratio for overall accesses (Ratio)
system.cpu.dcache.overallMshrMissRate::total     0.077874                       # mshr miss ratio for overall accesses (Ratio)
system.cpu.dcache.demandAvgMshrMissLatency::cpu.data 93692.060317                       # average overall mshr miss latency ((Cycle/Count))
system.cpu.dcache.demandAvgMshrMissLatency::total 93692.060317                       # average overall mshr miss latency ((Cycle/Count))
system.cpu.dcache.overallAvgMshrMissLatency::cpu.data 93692.060317                       # average overall mshr miss latency ((Cycle/Count))
system.cpu.dcache.overallAvgMshrMissLatency::total 93692.060317                       # average overall mshr miss latency ((Cycle/Count))
system.cpu.dcache.replacements                    154                       # number of replacements (Count)
system.cpu.dcache.ReadReq.hits::cpu.data         2072                       # number of ReadReq hits (Count)
system.cpu.dcache.ReadReq.hits::total            2072                       # number of ReadReq hits (Count)
system.cpu.dcache.ReadReq.misses::cpu.data          336                       # number of ReadReq misses (Count)
system.cpu.dcache.ReadReq.misses::total           336                       # number of ReadReq misses (Count)
system.cpu.dcache.ReadReq.missLatency::cpu.data     29037000                       # number of ReadReq miss ticks (Tick)
system.cpu.dcache.ReadReq.missLatency::total     29037000                       # number of ReadReq miss ticks (Tick)
system.cpu.dcache.ReadReq.accesses::cpu.data         2408                       # number of ReadReq accesses(hits+misses) (Count)
system.cpu.dcache.ReadReq.accesses::total         2408                       # number of ReadReq accesses(hits+misses) (Count)
system.cpu.dcache.ReadReq.missRate::cpu.data     0.139535                       # miss rate for ReadReq accesses (Ratio)
system.cpu.dcache.ReadReq.missRate::total     0.139535                       # miss rate for ReadReq accesses (Ratio)
system.cpu.dcache.ReadReq.avgMissLatency::cpu.data 86419.642857                       # average ReadReq miss latency ((Tick/Count))
system.cpu.dcache.ReadReq.avgMissLatency::total 86419.642857                       # average ReadReq miss latency ((Tick/Count))
system.cpu.dcache.ReadReq.mshrHits::cpu.data          177                       # number of ReadReq MSHR hits (Count)
system.cpu.dcache.ReadReq.mshrHits::total          177                       # number of ReadReq MSHR hits (Count)
system.cpu.dcache.ReadReq.mshrMisses::cpu.data          159                       # number of ReadReq MSHR misses (Count)
system.cpu.dcache.ReadReq.mshrMisses::total          159                       # number of ReadReq MSHR misses (Count)
system.cpu.dcache.ReadReq.mshrMissLatency::cpu.data     14881000                       # number of ReadReq MSHR miss ticks (Tick)
system.cpu.dcache.ReadReq.mshrMissLatency::total     14881000                       # number of ReadReq MSHR miss ticks (Tick)
system.cpu.dcache.ReadReq.mshrMissRate::cpu.data     0.066030                       # mshr miss rate for ReadReq accesses (Ratio)
system.cpu.dcache.ReadReq.mshrMissRate::total     0.066030                       # mshr miss rate for ReadReq accesses (Ratio)
system.cpu.dcache.ReadReq.avgMshrMissLatency::cpu.data 93591.194969                       # average ReadReq mshr miss latency ((Tick/Count))
system.cpu.dcache.ReadReq.avgMshrMissLatency::total 93591.194969                       # average ReadReq mshr miss latency ((Tick/Count))
system.cpu.dcache.WriteReq.hits::cpu.data         1479                       # number of WriteReq hits (Count)
system.cpu.dcache.WriteReq.hits::total           1479                       # number of WriteReq hits (Count)
system.cpu.dcache.WriteReq.misses::cpu.data          158                       # number of WriteReq misses (Count)
system.cpu.dcache.WriteReq.misses::total          158                       # number of WriteReq misses (Count)
system.cpu.dcache.WriteReq.missLatency::cpu.data     14947999                       # number of WriteReq miss ticks (Tick)
system.cpu.dcache.WriteReq.missLatency::total     14947999                       # number of WriteReq miss ticks (Tick)
system.cpu.dcache.WriteReq.accesses::cpu.data         1637                       # number of WriteReq accesses(hits+misses) (Count)
system.cpu.dcache.WriteReq.accesses::total         1637                       # number of WriteReq accesses(hits+misses) (Count)
system.cpu.dcache.WriteReq.missRate::cpu.data     0.096518                       # miss rate for WriteReq accesses (Ratio)
system.cpu.dcache.WriteReq.missRate::total     0.096518                       # miss rate for WriteReq accesses (Ratio)
system.cpu.dcache.WriteReq.avgMissLatency::cpu.data 94607.588608                       # average WriteReq miss latency ((Tick/Count))
system.cpu.dcache.WriteReq.avgMissLatency::total 94607.588608                       # average WriteReq miss latency ((Tick/Count))
system.cpu.dcache.WriteReq.mshrHits::cpu.data            2                       # number of WriteReq MSHR hits (Count)
system.cpu.dcache.WriteReq.mshrHits::total            2                       # number of WriteReq MSHR hits (Count)
system.cpu.dcache.WriteReq.mshrMisses::cpu.data          156                       # number of WriteReq MSHR misses (Count)
system.cpu.dcache.WriteReq.mshrMisses::total          156                       # number of WriteReq MSHR misses (Count)
system.cpu.dcache.WriteReq.mshrMissLatency::cpu.data     14631999                       # number of WriteReq MSHR miss ticks (Tick)
system.cpu.dcache.WriteReq.mshrMissLatency::total     14631999                       # number of WriteReq MSHR miss ticks (Tick)
system.cpu.dcache.WriteReq.mshrMissRate::cpu.data     0.095296                       # mshr miss rate for WriteReq accesses (Ratio)
system.cpu.dcache.WriteReq.mshrMissRate::total     0.095296                       # mshr miss rate for WriteReq accesses (Ratio)
system.cpu.dcache.WriteReq.avgMshrMissLatency::cpu.data 93794.865385                       # average WriteReq mshr miss latency ((Tick/Count))
system.cpu.dcache.WriteReq.avgMshrMissLatency::total 93794.865385                       # average WriteReq mshr miss latency ((Tick/Count))
system.cpu.dcache.power_state.pwrStateResidencyTicks::UNDEFINED   1689509000                       # Cumulative time (in ticks) in various power states (Tick)
system.cpu.dcache.tags.tagsInUse           124.075045                       # Average ticks per tags in use ((Tick/Count))
system.cpu.dcache.tags.totalRefs                 3868                       # Total number of references to valid blocks. (Count)
system.cpu.dcache.tags.sampledRefs                280                       # Sample count of references to valid blocks. (Count)
system.cpu.dcache.tags.avgRefs              13.814286                       # Average number of references to valid blocks. ((Count/Count))
system.cpu.dcache.tags.warmupTick              225000                       # The tick when the warmup percentage was hit. (Tick)
system.cpu.dcache.tags.occupancies::cpu.data   124.075045                       # Average occupied blocks per tick, per requestor ((Count/Tick))
system.cpu.dcache.tags.avgOccs::cpu.data     0.969336                       # Average percentage of cache occupancy ((Ratio/Tick))
system.cpu.dcache.tags.avgOccs::total        0.969336                       # Average percentage of cache occupancy ((Ratio/Tick))
system.cpu.dcache.tags.occupanciesTaskId::1024          126                       # Occupied blocks per task id (Count)
system.cpu.dcache.tags.ageTaskId_1024::0           18                       # Occupied blocks per task id, per block age (Count)
system.cpu.dcache.tags.ageTaskId_1024::3          108                       # Occupied blocks per task id, per block age (Count)
system.cpu.dcache.tags.ratioOccsTaskId::1024     0.984375                       # Ratio of occupied blocks and all blocks, per task id (Ratio)
system.cpu.dcache.tags.tagAccesses               8370                       # Number of tag accesses (Count)
system.cpu.dcache.tags.dataAccesses              8370                       # Number of data accesses (Count)
system.cpu.dcache.tags.power_state.pwrStateResidencyTicks::UNDEFINED   1689509000                       # Cumulative time (in ticks) in various power states (Tick)
system.cpu.decode.idleCycles                    16663                       # Number of cycles decode is idle (Cycle)
system.cpu.decode.blockedCycles                  8381                       # Number of cycles decode is blocked (Cycle)
system.cpu.decode.runCycles                   1643364                       # Number of cycles decode is running (Cycle)
system.cpu.decode.unblockCycles                   515                       # Number of cycles decode is unblocking (Cycle)
system.cpu.decode.squashCycles                    651                       # Number of cycles decode is squashing (Cycle)
system.cpu.decode.branchResolved               820636                       # Number of times decode resolved a branch (Count)
system.cpu.decode.branchMispred                   223                       # Number of times decode detected a branch misprediction (Count)
system.cpu.decode.decodedInsts                7406873                       # Number of instructions handled by decode (Count)
system.cpu.decode.squashedInsts                  1103                       # Number of squashed instructions handled by decode (Count)
system.cpu.fetch.icacheStallCycles              16929                       # Number of cycles fetch is stalled on an Icache miss (Cycle)
system.cpu.fetch.insts                        4115942                       # Number of instructions fetch has processed (Count)
system.cpu.fetch.branches                      823405                       # Number of branches that fetch encountered (Count)
system.cpu.fetch.predictedBranches             820822                       # Number of branches that fetch has predicted taken (Count)
system.cpu.fetch.cycles                       1650800                       # Number of cycles fetch has run and was not squashing or blocked (Cycle)
system.cpu.fetch.squashCycles                    1738                       # Number of cycles fetch has spent squashing (Cycle)
system.cpu.fetch.miscStallCycles                  140                       # Number of cycles fetch has spent waiting on interrupts, or bad addresses, or out of MSHRs (Cycle)
system.cpu.fetch.pendingTrapStallCycles           834                       # Number of stall cycles due to pending traps (Cycle)
system.cpu.fetch.pendingQuiesceStallCycles            2                       # Number of stall cycles due to pending quiesce instructions (Cycle)
system.cpu.fetch.cacheLines                      3134                       # Number of cache lines fetched (Count)
system.cpu.fetch.icacheSquashes                   378                       # Number of outstanding Icache misses that were squashed (Count)
system.cpu.fetch.nisnDist::samples            1669574                       # Number of instructions fetched each cycle (Total) (Count)
system.cpu.fetch.nisnDist::mean              4.438564                       # Number of instructions fetched each cycle (Total) (Count)
system.cpu.fetch.nisnDist::stdev             3.514718                       # Number of instructions fetched each cycle (Total) (Count)
system.cpu.fetch.nisnDist::underflows               0      0.00%      0.00% # Number of instructions fetched each cycle (Total) (Count)
system.cpu.fetch.nisnDist::0                    25057      1.50%      1.50% # Number of instructions fetched each cycle (Total) (Count)
system.cpu.fetch.nisnDist::1                   819648     49.09%     50.59% # Number of instructions fetched each cycle (Total) (Count)
system.cpu.fetch.nisnDist::2                      307      0.02%     50.61% # Number of instructions fetched each cycle (Total) (Count)
system.cpu.fetch.nisnDist::3                      350      0.02%     50.63% # Number of instructions fetched each cycle (Total) (Count)
system.cpu.fetch.nisnDist::4                      696      0.04%     50.68% # Number of instructions fetched each cycle (Total) (Count)
system.cpu.fetch.nisnDist::5                      269      0.02%     50.69% # Number of instructions fetched each cycle (Total) (Count)
system.cpu.fetch.nisnDist::6                      281      0.02%     50.71% # Number of instructions fetched each cycle (Total) (Count)
system.cpu.fetch.nisnDist::7                      344      0.02%     50.73% # Number of instructions fetched each cycle (Total) (Count)
system.cpu.fetch.nisnDist::8                   822622     49.27%    100.00% # Number of instructions fetched each cycle (Total) (Count)
system.cpu.fetch.nisnDist::overflows                0      0.00%    100.00% # Number of instructions fetched each cycle (Total) (Count)
system.cpu.fetch.nisnDist::min_value                0                       # Number of instructions fetched each cycle (Total) (Count)
system.cpu.fetch.nisnDist::max_value                8                       # Number of instructions fetched each cycle (Total) (Count)
system.cpu.fetch.nisnDist::total              1669574                       # Number of instructions fetched each cycle (Total) (Count)
system.cpu.fetch.branchRate                  0.487363                       # Number of branch fetches per cycle (Ratio)
system.cpu.fetch.rate                        2.436175                       # Number of inst fetches per cycle ((Count/Cycle))
system.cpu.icache.demandHits::cpu.inst           2528                       # number of demand (read+write) hits (Count)
system.cpu.icache.demandHits::total              2528                       # number of demand (read+write) hits (Count)
system.cpu.icache.overallHits::cpu.inst          2528                       # number of overall hits (Count)
system.cpu.icache.overallHits::total             2528                       # number of overall hits (Count)
system.cpu.icache.demandMisses::cpu.inst          606                       # number of demand (read+write) misses (Count)
system.cpu.icache.demandMisses::total             606                       # number of demand (read+write) misses (Count)
system.cpu.icache.overallMisses::cpu.inst          606                       # number of overall misses (Count)
system.cpu.icache.overallMisses::total            606                       # number of overall misses (Count)
system.cpu.icache.demandMissLatency::cpu.inst     62047000                       # number of demand (read+write) miss ticks (Tick)
system.cpu.icache.demandMissLatency::total     62047000                       # number of demand (read+write) miss ticks (Tick)
system.cpu.icache.overallMissLatency::cpu.inst     62047000                       # number of overall miss ticks (Tick)
system.cpu.icache.overallMissLatency::total     62047000                       # number of overall miss ticks (Tick)
system.cpu.icache.demandAccesses::cpu.inst         3134                       # number of demand (read+write) accesses (Count)
system.cpu.icache.demandAccesses::total          3134                       # number of demand (read+write) accesses (Count)
system.cpu.icache.overallAccesses::cpu.inst         3134                       # number of overall (read+write) accesses (Count)
system.cpu.icache.overallAccesses::total         3134                       # number of overall (read+write) accesses (Count)
system.cpu.icache.demandMissRate::cpu.inst     0.193363                       # miss rate for demand accesses (Ratio)
system.cpu.icache.demandMissRate::total      0.193363                       # miss rate for demand accesses (Ratio)
system.cpu.icache.overallMissRate::cpu.inst     0.193363                       # miss rate for overall accesses (Ratio)
system.cpu.icache.overallMissRate::total     0.193363                       # miss rate for overall accesses (Ratio)
system.cpu.icache.demandAvgMissLatency::cpu.inst 102387.788779                       # average overall miss latency ((Cycle/Count))
system.cpu.icache.demandAvgMissLatency::total 102387.788779                       # average overall miss latency ((Cycle/Count))
system.cpu.icache.overallAvgMissLatency::cpu.inst 102387.788779                       # average overall miss latency ((Cycle/Count))
system.cpu.icache.overallAvgMissLatency::total 102387.788779                       # average overall miss latency ((Cycle/Count))
system.cpu.icache.blockedCycles::no_mshrs           37                       # number of cycles access was blocked (Cycle)
system.cpu.icache.blockedCycles::no_targets            0                       # number of cycles access was blocked (Cycle)
system.cpu.icache.blockedCauses::no_mshrs            1                       # number of times access was blocked (Count)
system.cpu.icache.blockedCauses::no_targets            0                       # number of times access was blocked (Count)
system.cpu.icache.avgBlocked::no_mshrs             37                       # average number of cycles each access was blocked ((Cycle/Count))
system.cpu.icache.avgBlocked::no_targets          nan                       # average number of cycles each access was blocked ((Cycle/Count))
system.cpu.icache.demandMshrHits::cpu.inst          129                       # number of demand (read+write) MSHR hits (Count)
system.cpu.icache.demandMshrHits::total           129                       # number of demand (read+write) MSHR hits (Count)
system.cpu.icache.overallMshrHits::cpu.inst          129                       # number of overall MSHR hits (Count)
system.cpu.icache.overallMshrHits::total          129                       # number of overall MSHR hits (Count)
system.cpu.icache.demandMshrMisses::cpu.inst          477                       # number of demand (read+write) MSHR misses (Count)
system.cpu.icache.demandMshrMisses::total          477                       # number of demand (read+write) MSHR misses (Count)
system.cpu.icache.overallMshrMisses::cpu.inst          477                       # number of overall MSHR misses (Count)
system.cpu.icache.overallMshrMisses::total          477                       # number of overall MSHR misses (Count)
system.cpu.icache.demandMshrMissLatency::cpu.inst     50096000                       # number of demand (read+write) MSHR miss ticks (Tick)
system.cpu.icache.demandMshrMissLatency::total     50096000                       # number of demand (read+write) MSHR miss ticks (Tick)
system.cpu.icache.overallMshrMissLatency::cpu.inst     50096000                       # number of overall MSHR miss ticks (Tick)
system.cpu.icache.overallMshrMissLatency::total     50096000                       # number of overall MSHR miss ticks (Tick)
system.cpu.icache.demandMshrMissRate::cpu.inst     0.152202                       # mshr miss ratio for demand accesses (Ratio)
system.cpu.icache.demandMshrMissRate::total     0.152202                       # mshr miss ratio for demand accesses (Ratio)
system.cpu.icache.overallMshrMissRate::cpu.inst     0.152202                       # mshr miss ratio for overall accesses (Ratio)
system.cpu.icache.overallMshrMissRate::total     0.152202                       # mshr miss ratio for overall accesses (Ratio)
system.cpu.icache.demandAvgMshrMissLatency::cpu.inst 105023.060797                       # average overall mshr miss latency ((Cycle/Count))
system.cpu.icache.demandAvgMshrMissLatency::total 105023.060797                       # average overall mshr miss latency ((Cycle/Count))
system.cpu.icache.overallAvgMshrMissLatency::cpu.inst 105023.060797                       # average overall mshr miss latency ((Cycle/Count))
system.cpu.icache.overallAvgMshrMissLatency::total 105023.060797                       # average overall mshr miss latency ((Cycle/Count))
system.cpu.icache.replacements                    232                       # number of replacements (Count)
system.cpu.icache.ReadReq.hits::cpu.inst         2528                       # number of ReadReq hits (Count)
system.cpu.icache.ReadReq.hits::total            2528                       # number of ReadReq hits (Count)
system.cpu.icache.ReadReq.misses::cpu.inst          606                       # number of ReadReq misses (Count)
system.cpu.icache.ReadReq.misses::total           606                       # number of ReadReq misses (Count)
system.cpu.icache.ReadReq.missLatency::cpu.inst     62047000                       # number of ReadReq miss ticks (Tick)
system.cpu.icache.ReadReq.missLatency::total     62047000                       # number of ReadReq miss ticks (Tick)
system.cpu.icache.ReadReq.accesses::cpu.inst         3134                       # number of ReadReq accesses(hits+misses) (Count)
system.cpu.icache.ReadReq.accesses::total         3134                       # number of ReadReq accesses(hits+misses) (Count)
system.cpu.icache.ReadReq.missRate::cpu.inst     0.193363                       # miss rate for ReadReq accesses (Ratio)
system.cpu.icache.ReadReq.missRate::total     0.193363                       # miss rate for ReadReq accesses (Ratio)
system.cpu.icache.ReadReq.avgMissLatency::cpu.inst 102387.788779                       # average ReadReq miss latency ((Tick/Count))
system.cpu.icache.ReadReq.avgMissLatency::total 102387.788779                       # average ReadReq miss latency ((Tick/Count))
system.cpu.icache.ReadReq.mshrHits::cpu.inst          129                       # number of ReadReq MSHR hits (Count)
system.cpu.icache.ReadReq.mshrHits::total          129                       # number of ReadReq MSHR hits (Count)
system.cpu.icache.ReadReq.mshrMisses::cpu.inst          477                       # number of ReadReq MSHR misses (Count)
system.cpu.icache.ReadReq.mshrMisses::total          477                       # number of ReadReq MSHR misses (Count)
system.cpu.icache.ReadReq.mshrMissLatency::cpu.inst     50096000                       # number of ReadReq MSHR miss ticks (Tick)
system.cpu.icache.ReadReq.mshrMissLatency::total     50096000                       # number of ReadReq MSHR miss ticks (Tick)
system.cpu.icache.ReadReq.mshrMissRate::cpu.inst     0.152202                       # mshr miss rate for ReadReq accesses (Ratio)
system.cpu.icache.ReadReq.mshrMissRate::total     0.152202                       # mshr miss rate for ReadReq accesses (Ratio)
system.cpu.icache.ReadReq.avgMshrMissLatency::cpu.inst 105023.060797                       # average ReadReq mshr miss latency ((Tick/Count))
system.cpu.icache.ReadReq.avgMshrMissLatency::total 105023.060797                       # average ReadReq mshr miss latency ((Tick/Count))
system.cpu.icache.power_state.pwrStateResidencyTicks::UNDEFINED   1689509000                       # Cumulative time (in ticks) in various power states (Tick)
system.cpu.icache.tags.tagsInUse           240.472309                       # Average ticks per tags in use ((Tick/Count))
system.cpu.icache.tags.totalRefs                 3005                       # Total number of references to valid blocks. (Count)
system.cpu.icache.tags.sampledRefs                477                       # Sample count of references to valid blocks. (Count)
system.cpu.icache.tags.avgRefs               6.299790                       # Average number of references to valid blocks. ((Count/Count))
system.cpu.icache.tags.warmupTick              107000                       # The tick when the warmup percentage was hit. (Tick)
system.cpu.icache.tags.occupancies::cpu.inst   240.472309                       # Average occupied blocks per tick, per requestor ((Count/Tick))
system.cpu.icache.tags.avgOccs::cpu.inst     0.939345                       # Average percentage of cache occupancy ((Ratio/Tick))
system.cpu.icache.tags.avgOccs::total        0.939345                       # Average percentage of cache occupancy ((Ratio/Tick))
system.cpu.icache.tags.occupanciesTaskId::1024          245                       # Occupied blocks per task id (Count)
system.cpu.icache.tags.ageTaskId_1024::0           39                       # Occupied blocks per task id, per block age (Count)
system.cpu.icache.tags.ageTaskId_1024::3          206                       # Occupied blocks per task id, per block age (Count)
system.cpu.icache.tags.ratioOccsTaskId::1024     0.957031                       # Ratio of occupied blocks and all blocks, per task id (Ratio)
system.cpu.icache.tags.tagAccesses               6745                       # Number of tag accesses (Count)
system.cpu.icache.tags.dataAccesses              6745                       # Number of data accesses (Count)
system.cpu.icache.tags.power_state.pwrStateResidencyTicks::UNDEFINED   1689509000                       # Cumulative time (in ticks) in various power states (Tick)
system.cpu.interrupts.clk_domain.clock          16000                       # Clock period in ticks (Tick)
system.cpu.lsq0.forwLoads                         204                       # Number of loads that had data forwarded from stores (Count)
system.cpu.lsq0.squashedLoads                    1567                       # Number of loads squashed (Count)
system.cpu.lsq0.ignoredResponses                    7                       # Number of memory responses ignored because the instruction is squashed (Count)
system.cpu.lsq0.memOrderViolation                  21                       # Number of memory ordering violations (Count)
system.cpu.lsq0.squashedStores                    961                       # Number of stores squashed (Count)
system.cpu.lsq0.rescheduledLoads                    0                       # Number of loads that were rescheduled (Count)
system.cpu.lsq0.blockedByCache                     15                       # Number of times an access to memory failed due to the cache being blocked (Count)
system.cpu.lsq0.loadToUse::samples               1550                       # Distribution of cycle latency between the first time a load is issued and its completion (Unspecified)
system.cpu.lsq0.loadToUse::mean             13.312903                       # Distribution of cycle latency between the first time a load is issued and its completion (Unspecified)
system.cpu.lsq0.loadToUse::stdev            33.701814                       # Distribution of cycle latency between the first time a load is issued and its completion (Unspecified)
system.cpu.lsq0.loadToUse::0-9                   1386     89.42%     89.42% # Distribution of cycle latency between the first time a load is issued and its completion (Unspecified)
system.cpu.lsq0.loadToUse::10-19                    4      0.26%     89.68% # Distribution of cycle latency between the first time a load is issued and its completion (Unspecified)
system.cpu.lsq0.loadToUse::20-29                    1      0.06%     89.74% # Distribution of cycle latency between the first time a load is issued and its completion (Unspecified)
system.cpu.lsq0.loadToUse::30-39                   27      1.74%     91.48% # Distribution of cycle latency between the first time a load is issued and its completion (Unspecified)
system.cpu.lsq0.loadToUse::40-49                    1      0.06%     91.55% # Distribution of cycle latency between the first time a load is issued and its completion (Unspecified)
system.cpu.lsq0.loadToUse::50-59                    3      0.19%     91.74% # Distribution of cycle latency between the first time a load is issued and its completion (Unspecified)
system.cpu.lsq0.loadToUse::60-69                    1      0.06%     91.81% # Distribution of cycle latency between the first time a load is issued and its completion (Unspecified)
system.cpu.lsq0.loadToUse::70-79                    2      0.13%     91.94% # Distribution of cycle latency between the first time a load is issued and its completion (Unspecified)
system.cpu.lsq0.loadToUse::80-89                    5      0.32%     92.26% # Distribution of cycle latency between the first time a load is issued and its completion (Unspecified)
system.cpu.lsq0.loadToUse::90-99                   24      1.55%     93.81% # Distribution of cycle latency between the first time a load is issued and its completion (Unspecified)
system.cpu.lsq0.loadToUse::100-109                 26      1.68%     95.48% # Distribution of cycle latency between the first time a load is issued and its completion (Unspecified)
system.cpu.lsq0.loadToUse::110-119                 18      1.16%     96.65% # Distribution of cycle latency between the first time a load is issued and its completion (Unspecified)
system.cpu.lsq0.loadToUse::120-129                 35      2.26%     98.90% # Distribution of cycle latency between the first time a load is issued and its completion (Unspecified)
system.cpu.lsq0.loadToUse::130-139                  8      0.52%     99.42% # Distribution of cycle latency between the first time a load is issued and its completion (Unspecified)
system.cpu.lsq0.loadToUse::140-149                  2      0.13%     99.55% # Distribution of cycle latency between the first time a load is issued and its completion (Unspecified)
system.cpu.lsq0.loadToUse::210-219                  3      0.19%     99.74% # Distribution of cycle latency between the first time a load is issued and its completion (Unspecified)
system.cpu.lsq0.loadToUse::220-229                  2      0.13%     99.87% # Distribution of cycle latency between the first time a load is issued and its completion (Unspecified)
system.cpu.lsq0.loadToUse::overflows                2      0.13%    100.00% # Distribution of cycle latency between the first time a load is issued and its completion (Unspecified)
system.cpu.lsq0.loadToUse::min_value                2                       # Distribution of cycle latency between the first time a load is issued and its completion (Unspecified)
system.cpu.lsq0.loadToUse::max_value              320                       # Distribution of cycle latency between the first time a load is issued and its completion (Unspecified)
system.cpu.lsq0.loadToUse::total                 1550                       # Distribution of cycle latency between the first time a load is issued and its completion (Unspecified)
system.cpu.mmu.dtb.rdAccesses                    2682                       # TLB accesses on read requests (Count)
system.cpu.mmu.dtb.wrAccesses                    2172                       # TLB accesses on write requests (Count)
system.cpu.mmu.dtb.rdMisses                        78                       # TLB misses on read requests (Count)
system.cpu.mmu.dtb.wrMisses                        22                       # TLB misses on write requests (Count)
system.cpu.mmu.dtb.walker.power_state.pwrStateResidencyTicks::UNDEFINED   1689509000                       # Cumulative time (in ticks) in various power states (Tick)
system.cpu.mmu.itb.rdAccesses                       0                       # TLB accesses on read requests (Count)
system.cpu.mmu.itb.wrAccesses                    3280                       # TLB accesses on write requests (Count)
system.cpu.mmu.itb.rdMisses                         0                       # TLB misses on read requests (Count)
system.cpu.mmu.itb.wrMisses                       189                       # TLB misses on write requests (Count)
system.cpu.mmu.itb.walker.power_state.pwrStateResidencyTicks::UNDEFINED   1689509000                       # Cumulative time (in ticks) in various power states (Tick)
system.cpu.power_state.pwrStateResidencyTicks::ON   1689509000                       # Cumulative time (in ticks) in various power states (Tick)
system.cpu.rename.squashCycles                    651                       # Number of cycles rename is squashing (Cycle)
system.cpu.rename.idleCycles                    17143                       # Number of cycles rename is idle (Cycle)
system.cpu.rename.blockCycles                    2885                       # Number of cycles rename is blocking (Cycle)
system.cpu.rename.serializeStallCycles             30                       # count of cycles rename stalled for serializing inst (Cycle)
system.cpu.rename.runCycles                   1643336                       # Number of cycles rename is running (Cycle)
system.cpu.rename.unblockCycles                  5529                       # Number of cycles rename is unblocking (Cycle)
system.cpu.rename.renamedInsts                7405455                       # Number of instructions processed by rename (Count)
system.cpu.rename.ROBFullEvents                     9                       # Number of times rename has blocked due to ROB full (Count)
system.cpu.rename.IQFullEvents                    126                       # Number of times rename has blocked due to IQ full (Count)
system.cpu.rename.SQFullEvents                   5277                       # Number of times rename has blocked due to SQ full (Count)
[...]
system.victimbus.pktCount_system.cpu.dcache.mem_side_port::system.victimcache.cpu_side_port          788                       # Packet count per connected requestor and responder (Count)
system.victimbus.pktSize_system.cpu.dcache.mem_side_port::system.victimcache.cpu_side_port        27776                       # Cumulative packet size per connected requestor and responder (Byte)
system.victimbus.snoops                           412                       # Total snoops (Count)
system.victimbus.snoopTraffic                   26368                       # Total snoop traffic (Byte)
system.victimbus.snoopFanout::samples             729                       # Request fanout histogram (Count)
system.victimbus.snoopFanout::mean           0.374486                       # Request fanout histogram (Count)
system.victimbus.snoopFanout::stdev          0.484322                       # Request fanout histogram (Count)
system.victimbus.snoopFanout::underflows            0      0.00%      0.00% # Request fanout histogram (Count)
system.victimbus.snoopFanout::0                   456     62.55%     62.55% # Request fanout histogram (Count)
system.victimbus.snoopFanout::1                   273     37.45%    100.00% # Request fanout histogram (Count)
system.victimbus.snoopFanout::overflows             0      0.00%    100.00% # Request fanout histogram (Count)
system.victimbus.snoopFanout::min_value             0                       # Request fanout histogram (Count)
system.victimbus.snoopFanout::max_value             1                       # Request fanout histogram (Count)
system.victimbus.snoopFanout::total               729                       # Request fanout histogram (Count)
system.victimbus.power_state.pwrStateResidencyTicks::UNDEFINED   1689509000                       # Cumulative time (in ticks) in various power states (Tick)
system.victimbus.reqLayer0.occupancy           625000                       # Layer occupancy (ticks) (Tick)
system.victimbus.reqLayer0.utilization            0.0                       # Layer utilization (Ratio)
system.victimbus.respLayer0.occupancy          913683                       # Layer occupancy (ticks) (Tick)
system.victimbus.respLayer0.utilization           0.0                       # Layer utilization (Ratio)
system.victimbus.snoop_filter.totRequests          471                       # Total number of requests made to the snoop filter. (Count)
system.victimbus.snoop_filter.hitSingleRequests          191                       # Number of requests hitting in the snoop filter with a single holder of the requested data. (Count)
system.victimbus.snoop_filter.hitMultiRequests            0                       # Number of requests hitting in the snoop filter with multiple (>1) holders of the requested data. (Count)
system.victimbus.snoop_filter.totSnoops           273                       # Total number of snoops made to the snoop filter. (Count)
system.victimbus.snoop_filter.hitSingleSnoops          273                       # Number of snoops hitting in the snoop filter with a single holder of the requested data. (Count)
system.victimbus.snoop_filter.hitMultiSnoops            0                       # Number of snoops hitting in the snoop filter with multiple (>1) holders of the requested data. (Count)
system.victimcache.demandHits::cpu.data             7                       # number of demand (read+write) hits (Count)
system.victimcache.demandHits::total                7                       # number of demand (read+write) hits (Count)
system.victimcache.overallHits::cpu.data            7                       # number of overall hits (Count)
system.victimcache.overallHits::total               7                       # number of overall hits (Count)
system.victimcache.demandMisses::cpu.data          273                       # number of demand (read+write) misses (Count)
system.victimcache.demandMisses::total            273                       # number of demand (read+write) misses (Count)
system.victimcache.overallMisses::cpu.data          273                       # number of overall misses (Count)
system.victimcache.overallMisses::total           273                       # number of overall misses (Count)
system.victimcache.demandMissLatency::cpu.data     26739000                       # number of demand (read+write) miss ticks (Tick)
system.victimcache.demandMissLatency::total     26739000                       # number of demand (read+write) miss ticks (Tick)
system.victimcache.overallMissLatency::cpu.data     26739000                       # number of overall miss ticks (Tick)
system.victimcache.overallMissLatency::total     26739000                       # number of overall miss ticks (Tick)
system.victimcache.demandAccesses::cpu.data          280                       # number of demand (read+write) accesses (Count)
system.victimcache.demandAccesses::total          280                       # number of demand (read+write) accesses (Count)
system.victimcache.overallAccesses::cpu.data          280                       # number of overall (read+write) accesses (Count)
system.victimcache.overallAccesses::total          280                       # number of overall (read+write) accesses (Count)
system.victimcache.demandMissRate::cpu.data     0.975000                       # miss rate for demand accesses (Ratio)
system.victimcache.demandMissRate::total     0.975000                       # miss rate for demand accesses (Ratio)
system.victimcache.overallMissRate::cpu.data     0.975000                       # miss rate for overall accesses (Ratio)
system.victimcache.overallMissRate::total     0.975000                       # miss rate for overall accesses (Ratio)
system.victimcache.demandAvgMissLatency::cpu.data 97945.054945                       # average overall miss latency ((Cycle/Count))
system.victimcache.demandAvgMissLatency::total 97945.054945                       # average overall miss latency ((Cycle/Count))
system.victimcache.overallAvgMissLatency::cpu.data 97945.054945                       # average overall miss latency ((Cycle/Count))
system.victimcache.overallAvgMissLatency::total 97945.054945                       # average overall miss latency ((Cycle/Count))
system.victimcache.blockedCycles::no_mshrs          436                       # number of cycles access was blocked (Cycle)
system.victimcache.blockedCycles::no_targets            0                       # number of cycles access was blocked (Cycle)
system.victimcache.blockedCauses::no_mshrs           14                       # number of times access was blocked (Count)
system.victimcache.blockedCauses::no_targets            0                       # number of times access was blocked (Count)
system.victimcache.avgBlocked::no_mshrs     31.142857                       # average number of cycles each access was blocked ((Cycle/Count))
system.victimcache.avgBlocked::no_targets          nan                       # average number of cycles each access was blocked ((Cycle/Count))
system.victimcache.writebacks::writebacks          412                       # number of writebacks (Count)
system.victimcache.writebacks::total              412                       # number of writebacks (Count)
system.victimcache.demandMshrMisses::cpu.data          273                       # number of demand (read+write) MSHR misses (Count)
system.victimcache.demandMshrMisses::total          273                       # number of demand (read+write) MSHR misses (Count)
system.victimcache.overallMshrMisses::cpu.data          273                       # number of overall MSHR misses (Count)
system.victimcache.overallMshrMisses::total          273                       # number of overall MSHR misses (Count)
system.victimcache.demandMshrMissLatency::cpu.data     26739000                       # number of demand (read+write) MSHR miss ticks (Tick)
system.victimcache.demandMshrMissLatency::total     26739000                       # number of demand (read+write) MSHR miss ticks (Tick)
system.victimcache.overallMshrMissLatency::cpu.data     26739000                       # number of overall MSHR miss ticks (Tick)
system.victimcache.overallMshrMissLatency::total     26739000                       # number of overall MSHR miss ticks (Tick)
system.victimcache.demandMshrMissRate::cpu.data     0.975000                       # mshr miss ratio for demand accesses (Ratio)
system.victimcache.demandMshrMissRate::total     0.975000                       # mshr miss ratio for demand accesses (Ratio)
system.victimcache.overallMshrMissRate::cpu.data     0.975000                       # mshr miss ratio for overall accesses (Ratio)
system.victimcache.overallMshrMissRate::total     0.975000                       # mshr miss ratio for overall accesses (Ratio)
system.victimcache.demandAvgMshrMissLatency::cpu.data 97945.054945                       # average overall mshr miss latency ((Cycle/Count))
system.victimcache.demandAvgMshrMissLatency::total 97945.054945                       # average overall mshr miss latency ((Cycle/Count))
system.victimcache.overallAvgMshrMissLatency::cpu.data 97945.054945                       # average overall mshr miss latency ((Cycle/Count))
system.victimcache.overallAvgMshrMissLatency::total 97945.054945                       # average overall mshr miss latency ((Cycle/Count))
system.victimcache.replacements                   139                       # number of replacements (Count)
system.victimcache.ReadExReq.hits::cpu.data            1                       # number of ReadExReq hits (Count)
system.victimcache.ReadExReq.hits::total            1                       # number of ReadExReq hits (Count)
system.victimcache.ReadExReq.misses::cpu.data          120                       # number of ReadExReq misses (Count)
system.victimcache.ReadExReq.misses::total          120                       # number of ReadExReq misses (Count)
system.victimcache.ReadExReq.missLatency::cpu.data     12349000                       # number of ReadExReq miss ticks (Tick)
system.victimcache.ReadExReq.missLatency::total     12349000                       # number of ReadExReq miss ticks (Tick)
system.victimcache.ReadExReq.accesses::cpu.data          121                       # number of ReadExReq accesses(hits+misses) (Count)
system.victimcache.ReadExReq.accesses::total          121                       # number of ReadExReq accesses(hits+misses) (Count)
system.victimcache.ReadExReq.missRate::cpu.data     0.991736                       # miss rate for ReadExReq accesses (Ratio)
system.victimcache.ReadExReq.missRate::total     0.991736                       # miss rate for ReadExReq accesses (Ratio)
system.victimcache.ReadExReq.avgMissLatency::cpu.data 102908.333333                       # average ReadExReq miss latency ((Tick/Count))
system.victimcache.ReadExReq.avgMissLatency::total 102908.333333                       # average ReadExReq miss latency ((Tick/Count))
system.victimcache.ReadExReq.mshrMisses::cpu.data          120                       # number of ReadExReq MSHR misses (Count)
system.victimcache.ReadExReq.mshrMisses::total          120                       # number of ReadExReq MSHR misses (Count)
system.victimcache.ReadExReq.mshrMissLatency::cpu.data     12349000                       # number of ReadExReq MSHR miss ticks (Tick)
system.victimcache.ReadExReq.mshrMissLatency::total     12349000                       # number of ReadExReq MSHR miss ticks (Tick)
system.victimcache.ReadExReq.mshrMissRate::cpu.data     0.991736                       # mshr miss rate for ReadExReq accesses (Ratio)
system.victimcache.ReadExReq.mshrMissRate::total     0.991736                       # mshr miss rate for ReadExReq accesses (Ratio)
system.victimcache.ReadExReq.avgMshrMissLatency::cpu.data 102908.333333                       # average ReadExReq mshr miss latency ((Tick/Count))
system.victimcache.ReadExReq.avgMshrMissLatency::total 102908.333333                       # average ReadExReq mshr miss latency ((Tick/Count))
system.victimcache.ReadSharedReq.hits::cpu.data            6                       # number of ReadSharedReq hits (Count)
system.victimcache.ReadSharedReq.hits::total            6                       # number of ReadSharedReq hits (Count)
system.victimcache.ReadSharedReq.misses::cpu.data          153                       # number of ReadSharedReq misses (Count)
system.victimcache.ReadSharedReq.misses::total          153                       # number of ReadSharedReq misses (Count)
system.victimcache.ReadSharedReq.missLatency::cpu.data     14390000                       # number of ReadSharedReq miss ticks (Tick)
system.victimcache.ReadSharedReq.missLatency::total     14390000                       # number of ReadSharedReq miss ticks (Tick)
system.victimcache.ReadSharedReq.accesses::cpu.data          159                       # number of ReadSharedReq accesses(hits+misses) (Count)
system.victimcache.ReadSharedReq.accesses::total          159                       # number of ReadSharedReq accesses(hits+misses) (Count)
system.victimcache.ReadSharedReq.missRate::cpu.data     0.962264                       # miss rate for ReadSharedReq accesses (Ratio)
system.victimcache.ReadSharedReq.missRate::total     0.962264                       # miss rate for ReadSharedReq accesses (Ratio)
system.victimcache.ReadSharedReq.avgMissLatency::cpu.data 94052.287582                       # average ReadSharedReq miss latency ((Tick/Count))
system.victimcache.ReadSharedReq.avgMissLatency::total 94052.287582                       # average ReadSharedReq miss latency ((Tick/Count))
system.victimcache.ReadSharedReq.mshrMisses::cpu.data          153                       # number of ReadSharedReq MSHR misses (Count)
system.victimcache.ReadSharedReq.mshrMisses::total          153                       # number of ReadSharedReq MSHR misses (Count)
system.victimcache.ReadSharedReq.mshrMissLatency::cpu.data     14390000                       # number of ReadSharedReq MSHR miss ticks (Tick)
system.victimcache.ReadSharedReq.mshrMissLatency::total     14390000                       # number of ReadSharedReq MSHR miss ticks (Tick)
system.victimcache.ReadSharedReq.mshrMissRate::cpu.data     0.962264                       # mshr miss rate for ReadSharedReq accesses (Ratio)
system.victimcache.ReadSharedReq.mshrMissRate::total     0.962264                       # mshr miss rate for ReadSharedReq accesses (Ratio)
system.victimcache.ReadSharedReq.avgMshrMissLatency::cpu.data 94052.287582                       # average ReadSharedReq mshr miss latency ((Tick/Count))
system.victimcache.ReadSharedReq.avgMshrMissLatency::total 94052.287582                       # average ReadSharedReq mshr miss latency ((Tick/Count))
system.victimcache.UpgradeReq.misses::cpu.data           37                       # number of UpgradeReq misses (Count)
system.victimcache.UpgradeReq.misses::total           37                       # number of UpgradeReq misses (Count)
system.victimcache.UpgradeReq.accesses::cpu.data           37                       # number of UpgradeReq accesses(hits+misses) (Count)
system.victimcache.UpgradeReq.accesses::total           37                       # number of UpgradeReq accesses(hits+misses) (Count)
system.victimcache.UpgradeReq.missRate::cpu.data            1                       # miss rate for UpgradeReq accesses (Ratio)
system.victimcache.UpgradeReq.missRate::total            1                       # miss rate for UpgradeReq accesses (Ratio)
system.victimcache.UpgradeReq.mshrMisses::cpu.data           37                       # number of UpgradeReq MSHR misses (Count)
system.victimcache.UpgradeReq.mshrMisses::total           37                       # number of UpgradeReq MSHR misses (Count)
system.victimcache.UpgradeReq.mshrMissLatency::cpu.data      1758000                       # number of UpgradeReq MSHR miss ticks (Tick)
system.victimcache.UpgradeReq.mshrMissLatency::total      1758000                       # number of UpgradeReq MSHR miss ticks (Tick)
system.victimcache.UpgradeReq.mshrMissRate::cpu.data            1                       # mshr miss rate for UpgradeReq accesses (Ratio)
system.victimcache.UpgradeReq.mshrMissRate::total            1                       # mshr miss rate for UpgradeReq accesses (Ratio)
system.victimcache.UpgradeReq.avgMshrMissLatency::cpu.data 47513.513514                       # average UpgradeReq mshr miss latency ((Tick/Count))
system.victimcache.UpgradeReq.avgMshrMissLatency::total 47513.513514                       # average UpgradeReq mshr miss latency ((Tick/Count))
system.victimcache.WritebackClean.hits::writebacks           66                       # number of WritebackClean hits (Count)
system.victimcache.WritebackClean.hits::total           66                       # number of WritebackClean hits (Count)
system.victimcache.WritebackClean.accesses::writebacks           66                       # number of WritebackClean accesses(hits+misses) (Count)
system.victimcache.WritebackClean.accesses::total           66                       # number of WritebackClean accesses(hits+misses) (Count)
system.victimcache.WritebackDirty.hits::writebacks           88                       # number of WritebackDirty hits (Count)
system.victimcache.WritebackDirty.hits::total           88                       # number of WritebackDirty hits (Count)
system.victimcache.WritebackDirty.accesses::writebacks           88                       # number of WritebackDirty accesses(hits+misses) (Count)
system.victimcache.WritebackDirty.accesses::total           88                       # number of WritebackDirty accesses(hits+misses) (Count)
system.victimcache.power_state.pwrStateResidencyTicks::UNDEFINED   1689509000                       # Cumulative time (in ticks) in various power states (Tick)
system.victimcache.tags.tagsInUse            7.932854                       # Average ticks per tags in use ((Tick/Count))
system.victimcache.tags.totalRefs                 161                       # Total number of references to valid blocks. (Count)
system.victimcache.tags.sampledRefs               154                       # Sample count of references to valid blocks. (Count)
system.victimcache.tags.avgRefs              1.045455                       # Average number of references to valid blocks. ((Count/Count))
system.victimcache.tags.warmupTick           11004000                       # The tick when the warmup percentage was hit. (Tick)
system.victimcache.tags.occupancies::writebacks     7.932854                       # Average occupied blocks per tick, per requestor ((Count/Tick))
system.victimcache.tags.avgOccs::writebacks     0.991607                       # Average percentage of cache occupancy ((Ratio/Tick))
system.victimcache.tags.avgOccs::total       0.991607                       # Average percentage of cache occupancy ((Ratio/Tick))
system.victimcache.tags.occupanciesTaskId::1024            8                       # Occupied blocks per task id (Count)
system.victimcache.tags.ageTaskId_1024::0            8                       # Occupied blocks per task id, per block age (Count)
system.victimcache.tags.ratioOccsTaskId::1024            1                       # Ratio of occupied blocks and all blocks, per task id (Ratio)
system.victimcache.tags.tagAccesses              3922                       # Number of tag accesses (Count)
system.victimcache.tags.dataAccesses             3922                       # Number of data accesses (Count)
system.victimcache.tags.power_state.pwrStateResidencyTicks::UNDEFINED   1689509000                       # Cumulative time (in ticks) in various power states (Tick)
system.workload.inst.arm                            0                       # number of arm instructions executed (Count)
system.workload.inst.quiesce                        0                       # number of quiesce instructions executed (Count)

---------- End Simulation Statistics   ----------
