
---------- Begin Simulation Statistics ----------
simSeconds                                   0.000422                       # Number of seconds simulated (Second)
simTicks                                    421874000                       # Number of ticks simulated (Tick)
finalTick                                   421874000                       # Number of ticks from beginning of simulation (restored from checkpoints and never reset) (Tick)
simFreq                                  1000000000000                       # The number of ticks per simulated second ((Tick/Second))
hostSeconds                                      2.39                       # Real time elapsed on the host (Second)
hostTickRate                                176443083                       # The number of ticks simulated per host second (ticks/s) ((Tick/Second))
hostMemory                                     645988                       # Number of bytes of host memory used (Byte)
simInsts                                       123096                       # Number of instructions simulated (Count)
simOps                                         245690                       # Number of ops (including micro ops) simulated (Count)
hostInstRate                                    51481                       # Simulator instruction rate (inst/s) ((Count/Second))
hostOpRate                                     102751                       # Simulator op (including micro ops) rate (op/s) ((Count/Second))
system.clk_domain.clock                          1000                       # Clock period in ticks (Tick)
system.clk_domain.voltage_domain.voltage            1                       # Voltage in Volts (Volt)
system.cpu.numCycles                           421875                       # Number of cpu cycles simulated (Cycle)
system.cpu.numWorkItemsStarted                      0                       # Number of work items this cpu started (Count)
system.cpu.numWorkItemsCompleted                    0                       # Number of work items this cpu completed (Count)
system.cpu.instsAdded                          259513                       # Number of instructions added to the IQ (excludes non-spec) (Count)
system.cpu.nonSpecInstsAdded                        1                       # Number of non-speculative instructions added to the IQ (Count)
system.cpu.instsIssued                         825874                       # Number of instructions issued (Count)
system.cpu.squashedInstsIssued                     63                       # Number of squashed instructions issued (Count)
system.cpu.squashedInstsExamined                13818                       # Number of squashed instructions iterated over during squash; mainly for profiling (Count)
system.cpu.squashedOperandsExamined             15437                       # Number of squashed operands that are examined and possibly removed from graph (Count)
system.cpu.squashedNonSpecRemoved                   1                       # Number of squashed non-spec instructions that were removed (Count)
system.cpu.numIssuedDist::samples              402008                       # Number of insts issued each cycle (Count)
system.cpu.numIssuedDist::mean               2.054372                       # Number of insts issued each cycle (Count)
system.cpu.numIssuedDist::stdev              2.089968                       # Number of insts issued each cycle (Count)
system.cpu.numIssuedDist::underflows                0      0.00%      0.00% # Number of insts issued each cycle (Count)
system.cpu.numIssuedDist::0                    165383     41.14%     41.14% # Number of insts issued each cycle (Count)
system.cpu.numIssuedDist::1                     42076     10.47%     51.61% # Number of insts issued each cycle (Count)
system.cpu.numIssuedDist::2                     24829      6.18%     57.78% # Number of insts issued each cycle (Count)
system.cpu.numIssuedDist::3                     15944      3.97%     61.75% # Number of insts issued each cycle (Count)
system.cpu.numIssuedDist::4                    103567     25.76%     87.51% # Number of insts issued each cycle (Count)
system.cpu.numIssuedDist::5                     38321      9.53%     97.04% # Number of insts issued each cycle (Count)
system.cpu.numIssuedDist::6                      5912      1.47%     98.51% # Number of insts issued each cycle (Count)
system.cpu.numIssuedDist::7                      2845      0.71%     99.22% # Number of insts issued each cycle (Count)
system.cpu.numIssuedDist::8                      3131      0.78%    100.00% # Number of insts issued each cycle (Count)
system.cpu.numIssuedDist::overflows                 0      0.00%    100.00% # Number of insts issued each cycle (Count)
system.cpu.numIssuedDist::min_value                 0                       # Number of insts issued each cycle (Count)
system.cpu.numIssuedDist::max_value                 8                       # Number of insts issued each cycle (Count)
system.cpu.numIssuedDist::total                402008                       # Number of insts issued each cycle (Count)
system.cpu.statFuBusy::No_OpClass                   0      0.00%      0.00% # attempts to use FU when none available (Count)
system.cpu.statFuBusy::IntAlu                     250      0.19%      0.19% # attempts to use FU when none available (Count)
system.cpu.statFuBusy::IntMult                      0      0.00%      0.19% # attempts to use FU when none available (Count)
system.cpu.statFuBusy::IntDiv                       0      0.00%      0.19% # attempts to use FU when none available (Count)
system.cpu.statFuBusy::FloatAdd                     0      0.00%      0.19% # attempts to use FU when none available (Count)
system.cpu.statFuBusy::FloatCmp                     0      0.00%      0.19% # attempts to use FU when none available (Count)
system.cpu.statFuBusy::FloatCvt                     0      0.00%      0.19% # attempts to use FU when none available (Count)
system.cpu.statFuBusy::FloatMult                    0      0.00%      0.19% # attempts to use FU when none available (Count)
system.cpu.statFuBusy::FloatMultAcc                 0      0.00%      0.19% # attempts to use FU when none available (Count)
system.cpu.statFuBusy::FloatDiv                     0      0.00%      0.19% # attempts to use FU when none available (Count)
system.cpu.statFuBusy::FloatMisc                    0      0.00%      0.19% # attempts to use FU when none available (Count)
system.cpu.statFuBusy::FloatSqrt                    0      0.00%      0.19% # attempts to use FU when none available (Count)
system.cpu.statFuBusy::SimdAdd                      0      0.00%      0.19% # attempts to use FU when none available (Count)
system.cpu.statFuBusy::SimdAddAcc                   0      0.00%      0.19% # attempts to use FU when none available (Count)
system.cpu.statFuBusy::SimdAlu                     11      0.01%      0.20% # attempts to use FU when none available (Count)
system.cpu.statFuBusy::SimdCmp                      0      0.00%      0.20% # attempts to use FU when none available (Count)
system.cpu.statFuBusy::SimdCvt                      1      0.00%      0.20% # attempts to use FU when none available (Count)
system.cpu.statFuBusy::SimdMisc                     2      0.00%      0.20% # attempts to use FU when none available (Count)
system.cpu.statFuBusy::SimdMult                     0      0.00%      0.20% # attempts to use FU when none available (Count)
system.cpu.statFuBusy::SimdMultAcc                  0      0.00%      0.20% # attempts to use FU when none available (Count)
system.cpu.statFuBusy::SimdShift                    0      0.00%      0.20% # attempts to use FU when none available (Count)
system.cpu.statFuBusy::SimdShiftAcc                 0      0.00%      0.20% # attempts to use FU when none available (Count)
system.cpu.statFuBusy::SimdDiv                      0      0.00%      0.20% # attempts to use FU when none available (Count)
system.cpu.statFuBusy::SimdSqrt                     0      0.00%      0.20% # attempts to use FU when none available (Count)
system.cpu.statFuBusy::SimdFloatAdd                 0      0.00%      0.20% # attempts to use FU when none available (Count)
system.cpu.statFuBusy::SimdFloatAlu                 0      0.00%      0.20% # attempts to use FU when none available (Count)
system.cpu.statFuBusy::SimdFloatCmp                 0      0.00%      0.20% # attempts to use FU when none available (Count)
system.cpu.statFuBusy::SimdFloatCvt                 0      0.00%      0.20% # attempts to use FU when none available (Count)
system.cpu.statFuBusy::SimdFloatDiv                 0      0.00%      0.20% # attempts to use FU when none available (Count)
system.cpu.statFuBusy::SimdFloatMisc                0      0.00%      0.20% # attempts to use FU when none available (Count)
system.cpu.statFuBusy::SimdFloatMult                0      0.00%      0.20% # attempts to use FU when none available (Count)
system.cpu.statFuBusy::SimdFloatMultAcc             0      0.00%      0.20% # attempts to use FU when none available (Count)
system.cpu.statFuBusy::SimdFloatSqrt                0      0.00%      0.20% # attempts to use FU when none available (Count)
system.cpu.statFuBusy::SimdReduceAdd                0      0.00%      0.20% # attempts to use FU when none available (Count)
system.cpu.statFuBusy::SimdReduceAlu                0      0.00%      0.20% # attempts to use FU when none available (Count)
system.cpu.statFuBusy::SimdReduceCmp                0      0.00%      0.20% # attempts to use FU when none available (Count)
system.cpu.statFuBusy::SimdFloatReduceAdd            0      0.00%      0.20% # attempts to use FU when none available (Count)
system.cpu.statFuBusy::SimdFloatReduceCmp            0      0.00%      0.20% # attempts to use FU when none available (Count)
system.cpu.statFuBusy::SimdAes                      0      0.00%      0.20% # attempts to use FU when none available (Count)
system.cpu.statFuBusy::SimdAesMix                   0      0.00%      0.20% # attempts to use FU when none available (Count)
system.cpu.statFuBusy::SimdSha1Hash                 0      0.00%      0.20% # attempts to use FU when none available (Count)
system.cpu.statFuBusy::SimdSha1Hash2                0      0.00%      0.20% # attempts to use FU when none available (Count)
system.cpu.statFuBusy::SimdSha256Hash               0      0.00%      0.20% # attempts to use FU when none available (Count)
system.cpu.statFuBusy::SimdSha256Hash2              0      0.00%      0.20% # attempts to use FU when none available (Count)
system.cpu.statFuBusy::SimdShaSigma2                0      0.00%      0.20% # attempts to use FU when none available (Count)
system.cpu.statFuBusy::SimdShaSigma3                0      0.00%      0.20% # attempts to use FU when none available (Count)
system.cpu.statFuBusy::SimdPredAlu                  0      0.00%      0.20% # attempts to use FU when none available (Count)
system.cpu.statFuBusy::MemRead                     57      0.04%      0.25% # attempts to use FU when none available (Count)
system.cpu.statFuBusy::MemWrite                    16      0.01%      0.26% # attempts to use FU when none available (Count)
system.cpu.statFuBusy::FloatMemRead            129466     99.73%     99.99% # attempts to use FU when none available (Count)
system.cpu.statFuBusy::FloatMemWrite                8      0.01%    100.00% # attempts to use FU when none available (Count)
system.cpu.statFuBusy::IprAccess                    0      0.00%    100.00% # attempts to use FU when none available (Count)
system.cpu.statFuBusy::InstPrefetch                 0      0.00%    100.00% # attempts to use FU when none available (Count)
system.cpu.statIssuedInstType_0::No_OpClass          674      0.08%      0.08% # Number of instructions issued per FU type, per thread (Count)
system.cpu.statIssuedInstType_0::IntAlu        102276     12.38%     12.47% # Number of instructions issued per FU type, per thread (Count)
system.cpu.statIssuedInstType_0::IntMult            5      0.00%     12.47% # Number of instructions issued per FU type, per thread (Count)
system.cpu.statIssuedInstType_0::IntDiv            22      0.00%     12.47% # Number of instructions issued per FU type, per thread (Count)
system.cpu.statIssuedInstType_0::FloatAdd          136      0.02%     12.49% # Number of instructions issued per FU type, per thread (Count)
system.cpu.statIssuedInstType_0::FloatCmp            0      0.00%     12.49% # Number of instructions issued per FU type, per thread (Count)
system.cpu.statIssuedInstType_0::FloatCvt            0      0.00%     12.49% # Number of instructions issued per FU type, per thread (Count)
system.cpu.statIssuedInstType_0::FloatMult            0      0.00%     12.49% # Number of instructions issued per FU type, per thread (Count)
system.cpu.statIssuedInstType_0::FloatMultAcc            0      0.00%     12.49% # Number of instructions issued per FU type, per thread (Count)
system.cpu.statIssuedInstType_0::FloatDiv            0      0.00%     12.49% # Number of instructions issued per FU type, per thread (Count)
system.cpu.statIssuedInstType_0::FloatMisc            0      0.00%     12.49% # Number of instructions issued per FU type, per thread (Count)
system.cpu.statIssuedInstType_0::FloatSqrt            0      0.00%     12.49% # Number of instructions issued per FU type, per thread (Count)
system.cpu.statIssuedInstType_0::SimdAdd            0      0.00%     12.49% # Number of instructions issued per FU type, per thread (Count)
system.cpu.statIssuedInstType_0::SimdAddAcc            0      0.00%     12.49% # Number of instructions issued per FU type, per thread (Count)
system.cpu.statIssuedInstType_0::SimdAlu          162      0.02%     12.50% # Number of instructions issued per FU type, per thread (Count)
system.cpu.statIssuedInstType_0::SimdCmp            0      0.00%     12.50% # Number of instructions issued per FU type, per thread (Count)
system.cpu.statIssuedInstType_0::SimdCvt           48      0.01%     12.51% # Number of instructions issued per FU type, per thread (Count)
system.cpu.statIssuedInstType_0::SimdMisc          218      0.03%     12.54% # Number of instructions issued per FU type, per thread (Count)
system.cpu.statIssuedInstType_0::SimdMult            0      0.00%     12.54% # Number of instructions issued per FU type, per thread (Count)
system.cpu.statIssuedInstType_0::SimdMultAcc            0      0.00%     12.54% # Number of instructions issued per FU type, per thread (Count)
system.cpu.statIssuedInstType_0::SimdShift            0      0.00%     12.54% # Number of instructions issued per FU type, per thread (Count)
system.cpu.statIssuedInstType_0::SimdShiftAcc            0      0.00%     12.54% # Number of instructions issued per FU type, per thread (Count)
system.cpu.statIssuedInstType_0::SimdDiv            0      0.00%     12.54% # Number of instructions issued per FU type, per thread (Count)
system.cpu.statIssuedInstType_0::SimdSqrt            0      0.00%     12.54% # Number of instructions issued per FU type, per thread (Count)
system.cpu.statIssuedInstType_0::SimdFloatAdd        73728      8.93%     21.46% # Number of instructions issued per FU type, per thread (Count)
system.cpu.statIssuedInstType_0::SimdFloatAlu            0      0.00%     21.46% # Number of instructions issued per FU type, per thread (Count)
system.cpu.statIssuedInstType_0::SimdFloatCmp            0      0.00%     21.46% # Number of instructions issued per FU type, per thread (Count)
system.cpu.statIssuedInstType_0::SimdFloatCvt            0      0.00%     21.46% # Number of instructions issued per FU type, per thread (Count)
system.cpu.statIssuedInstType_0::SimdFloatDiv            0      0.00%     21.46% # Number of instructions issued per FU type, per thread (Count)
system.cpu.statIssuedInstType_0::SimdFloatMisc            0      0.00%     21.46% # Number of instructions issued per FU type, per thread (Count)
system.cpu.statIssuedInstType_0::SimdFloatMult            0      0.00%     21.46% # Number of instructions issued per FU type, per thread (Count)
system.cpu.statIssuedInstType_0::SimdFloatMultAcc            0      0.00%     21.46% # Number of instructions issued per FU type, per thread (Count)
system.cpu.statIssuedInstType_0::SimdFloatSqrt            0      0.00%     21.46% # Number of instructions issued per FU type, per thread (Count)
system.cpu.statIssuedInstType_0::SimdReduceAdd            0      0.00%     21.46% # Number of instructions issued per FU type, per thread (Count)
system.cpu.statIssuedInstType_0::SimdReduceAlu            0      0.00%     21.46% # Number of instructions issued per FU type, per thread (Count)
system.cpu.statIssuedInstType_0::SimdReduceCmp            0      0.00%     21.46% # Number of instructions issued per FU type, per thread (Count)
system.cpu.statIssuedInstType_0::SimdFloatReduceAdd            0      0.00%     21.46% # Number of instructions issued per FU type, per thread (Count)
system.cpu.statIssuedInstType_0::SimdFloatReduceCmp            0      0.00%     21.46% # Number of instructions issued per FU type, per thread (Count)
system.cpu.statIssuedInstType_0::SimdAes            0      0.00%     21.46% # Number of instructions issued per FU type, per thread (Count)
system.cpu.statIssuedInstType_0::SimdAesMix            0      0.00%     21.46% # Number of instructions issued per FU type, per thread (Count)
system.cpu.statIssuedInstType_0::SimdSha1Hash            0      0.00%     21.46% # Number of instructions issued per FU type, per thread (Count)
system.cpu.statIssuedInstType_0::SimdSha1Hash2            0      0.00%     21.46% # Number of instructions issued per FU type, per thread (Count)
system.cpu.statIssuedInstType_0::SimdSha256Hash            0      0.00%     21.46% # Number of instructions issued per FU type, per thread (Count)
system.cpu.statIssuedInstType_0::SimdSha256Hash2            0      0.00%     21.46% # Number of instructions issued per FU type, per thread (Count)
system.cpu.statIssuedInstType_0::SimdShaSigma2            0      0.00%     21.46% # Number of instructions issued per FU type, per thread (Count)
system.cpu.statIssuedInstType_0::SimdShaSigma3            0      0.00%     21.46% # Number of instructions issued per FU type, per thread (Count)
system.cpu.statIssuedInstType_0::SimdPredAlu            0      0.00%     21.46% # Number of instructions issued per FU type, per thread (Count)
system.cpu.statIssuedInstType_0::MemRead         3007      0.36%     21.83% # Number of instructions issued per FU type, per thread (Count)
system.cpu.statIssuedInstType_0::MemWrite         1824      0.22%     22.05% # Number of instructions issued per FU type, per thread (Count)
system.cpu.statIssuedInstType_0::FloatMemRead       643237     77.89%     99.93% # Number of instructions issued per FU type, per thread (Count)
system.cpu.statIssuedInstType_0::FloatMemWrite          537      0.07%    100.00% # Number of instructions issued per FU type, per thread (Count)
system.cpu.statIssuedInstType_0::IprAccess            0      0.00%    100.00% # Number of instructions issued per FU type, per thread (Count)
system.cpu.statIssuedInstType_0::InstPrefetch            0      0.00%    100.00% # Number of instructions issued per FU type, per thread (Count)
system.cpu.statIssuedInstType_0::total         825874                       # Number of instructions issued per FU type, per thread (Count)
system.cpu.issueRate                         1.957627                       # Inst issue rate ((Count/Cycle))
system.cpu.fuBusy                              129811                       # FU busy when requested (Count)
system.cpu.fuBusyRate                        0.157180                       # FU busy rate (busy events/executed inst) ((Count/Count))
system.cpu.intInstQueueReads                   617730                       # Number of integer instruction queue reads (Count)
system.cpu.intInstQueueWrites                  124360                       # Number of integer instruction queue writes (Count)
system.cpu.intInstQueueWakeupAccesses          105914                       # Number of integer instruction queue wakeup accesses (Count)
system.cpu.fpInstQueueReads                   1565900                       # Number of floating instruction queue reads (Count)
system.cpu.fpInstQueueWrites                   148986                       # Number of floating instruction queue writes (Count)
system.cpu.fpInstQueueWakeupAccesses           148742                       # Number of floating instruction queue wakeup accesses (Count)
system.cpu.vecInstQueueReads                        0                       # Number of vector instruction queue reads (Count)
system.cpu.vecInstQueueWrites                       0                       # Number of vector instruction queue writes (Count)
system.cpu.vecInstQueueWakeupAccesses               0                       # Number of vector instruction queue wakeup accesses (Count)
system.cpu.intAluAccesses                      107317                       # Number of integer alu accesses (Count)
system.cpu.fpAluAccesses                       847694                       # Number of floating point alu accesses (Count)
system.cpu.vecAluAccesses                           0                       # Number of vector alu accesses (Count)
system.cpu.idleCycles                               0                       # Number of cycles IEW is idle (Cycle)
system.cpu.squashCycles                           610                       # Number of cycles IEW is squashing (Cycle)
system.cpu.blockCycles                          11276                       # Number of cycles IEW is blocking (Cycle)
system.cpu.unblockCycles                        59709                       # Number of cycles IEW is unblocking (Cycle)
system.cpu.dispatchedInsts                     259514                       # Number of instructions dispatched to IQ (Count)
system.cpu.dispSquashedInsts                       35                       # Number of squashed instructions skipped by dispatch (Count)
system.cpu.dispLoadInsts                        76963                       # Number of dispatched load instructions (Count)
system.cpu.dispStoreInsts                        2756                       # Number of dispatched store instructions (Count)
system.cpu.dispNonSpecInsts                         1                       # Number of dispatched non-speculative instructions (Count)
system.cpu.iqFullEvents                           156                       # Number of times the IQ has become full, causing a stall (Count)
system.cpu.lsqFullEvents                        59111                       # Number of times the LSQ has become full, causing a stall (Count)
system.cpu.memOrderViolationEvents                 15                       # Number of memory order violations (Count)
system.cpu.predictedTakenIncorrect                 49                       # Number of branches that were predicted taken incorrectly (Count)
system.cpu.predictedNotTakenIncorrect             651                       # Number of branches that were predicted not taken incorrectly (Count)
system.cpu.branchMispredicts                      700                       # Number of branch mispredicts detected at execute (Count)
system.cpu.numInsts                            824923                       # Number of executed instructions (Count)
system.cpu.numLoadInsts                        646071                       # Number of load instructions executed (Count)
system.cpu.numSquashedInsts                       951                       # Number of squashed instructions skipped in execute (Count)
system.cpu.numSwp                                   0                       # Number of swp insts executed (Count)
system.cpu.numNop                                   0                       # Number of nop insts executed (Count)
system.cpu.numRefs                             648338                       # Number of memory reference insts executed (Count)
system.cpu.numBranches                          10698                       # Number of branches executed (Count)
system.cpu.numStoreInsts                         2267                       # Number of stores executed (Count)
system.cpu.numRate                           1.955373                       # Inst execution rate ((Count/Cycle))
system.cpu.instsToCommit                       255051                       # Cumulative count of insts sent to commit (Count)
system.cpu.writebackCount                      254656                       # Cumulative count of insts written-back (Count)
system.cpu.producerInst                        223998                       # Number of instructions producing a value (Count)
system.cpu.consumerInst                        331831                       # Number of instructions consuming a value (Count)
system.cpu.wbRate                            0.603629                       # Insts written-back per cycle ((Count/Cycle))
system.cpu.wbFanout                          0.675036                       # Average fanout of values written-back ((Count/Count))
system.cpu.timesIdled                             306                       # Number of times that the entire CPU went into an idle state and unscheduled itself (Count)
system.cpu.idleCycles                           19867                       # Total number of cycles that the CPU has spent unscheduled due to idling (Cycle)
system.cpu.committedInsts                      123096                       # Number of Instructions Simulated (Count)
system.cpu.committedOps                        245690                       # Number of Ops (including micro ops) Simulated (Count)
system.cpu.cpi                               3.427203                       # CPI: Cycles Per Instruction ((Cycle/Count))
system.cpu.totalCpi                          3.427203                       # CPI: Total CPI of All Threads ((Cycle/Count))
system.cpu.ipc                               0.291783                       # IPC: Instructions Per Cycle ((Count/Cycle))
system.cpu.totalIpc                          0.291783                       # IPC: Total IPC of All Threads ((Count/Cycle))
system.cpu.intRegfileReads                    1411541                       # Number of integer regfile reads (Count)
system.cpu.intRegfileWrites                     93218                       # Number of integer regfile writes (Count)
system.cpu.fpRegfileReads                      222726                       # Number of floating regfile reads (Count)
system.cpu.fpRegfileWrites                     148171                       # Number of floating regfile writes (Count)
system.cpu.ccRegfileReads                       60464                       # number of cc regfile reads (Count)
system.cpu.ccRegfileWrites                      56631                       # number of cc regfile writes (Count)
system.cpu.miscRegfileReads                    670818                       # number of misc regfile reads (Count)
system.cpu.MemDepUnit__0.insertedLoads          76963                       # Number of loads inserted to the mem dependence unit. (Count)
system.cpu.MemDepUnit__0.insertedStores          2756                       # Number of stores inserted to the mem dependence unit. (Count)
system.cpu.MemDepUnit__0.conflictingLoads           25                       # Number of conflicting loads. (Count)
system.cpu.MemDepUnit__0.conflictingStores            7                       # Number of conflicting stores. (Count)
system.cpu.MemDepUnit__1.insertedLoads              0                       # Number of loads inserted to the mem dependence unit. (Count)
system.cpu.MemDepUnit__1.insertedStores             0                       # Number of stores inserted to the mem dependence unit. (Count)
system.cpu.MemDepUnit__1.conflictingLoads            0                       # Number of conflicting loads. (Count)
system.cpu.MemDepUnit__1.conflictingStores            0                       # Number of conflicting stores. (Count)
system.cpu.MemDepUnit__2.insertedLoads              0                       # Number of loads inserted to the mem dependence unit. (Count)
system.cpu.MemDepUnit__2.insertedStores             0                       # Number of stores inserted to the mem dependence unit. (Count)
system.cpu.MemDepUnit__2.conflictingLoads            0                       # Number of conflicting loads. (Count)
system.cpu.MemDepUnit__2.conflictingStores            0                       # Number of conflicting stores. (Count)
system.cpu.MemDepUnit__3.insertedLoads              0                       # Number of loads inserted to the mem dependence unit. (Count)
system.cpu.MemDepUnit__3.insertedStores             0                       # Number of stores inserted to the mem dependence unit. (Count)
system.cpu.MemDepUnit__3.conflictingLoads            0                       # Number of conflicting loads. (Count)
system.cpu.MemDepUnit__3.conflictingStores            0                       # Number of conflicting stores. (Count)
system.cpu.branchPred.lookups                   12409                       # Number of BP lookups (Count)
system.cpu.branchPred.condPredicted             11128                       # Number of conditional branches predicted (Count)
system.cpu.branchPred.condIncorrect               698                       # Number of conditional branches incorrect (Count)
system.cpu.branchPred.BTBLookups                10112                       # Number of BTB lookups (Count)
system.cpu.branchPred.BTBHits                    9422                       # Number of BTB hits (Count)
system.cpu.branchPred.BTBHitRatio            0.931764                       # BTB Hit Ratio (Ratio)
system.cpu.branchPred.RASUsed                     283                       # Number of times the RAS was used to get a target. (Count)
system.cpu.branchPred.RASIncorrect                  0                       # Number of incorrect RAS predictions. (Count)
system.cpu.branchPred.indirectLookups             358                       # Number of indirect predictor lookups. (Count)
system.cpu.branchPred.indirectHits                 12                       # Number of indirect target hits. (Count)
system.cpu.branchPred.indirectMisses              346                       # Number of indirect misses. (Count)
system.cpu.branchPred.indirectMispredicted           94                       # Number of mispredicted indirect branches. (Count)
system.cpu.commit.commitSquashedInsts           13718                       # The number of squashed insts skipped by commit (Count)
system.cpu.commit.branchMispredicts               585                       # The number of times a branch was mispredicted (Count)
system.cpu.commit.numCommittedDist::samples       399827                       # Number of insts commited each cycle (Count)
system.cpu.commit.numCommittedDist::mean     0.614491                       # Number of insts commited each cycle (Count)
system.cpu.commit.numCommittedDist::stdev     1.504943                       # Number of insts commited each cycle (Count)
system.cpu.commit.numCommittedDist::underflows            0      0.00%      0.00% # Number of insts commited each cycle (Count)
system.cpu.commit.numCommittedDist::0          304484     76.15%     76.15% # Number of insts commited each cycle (Count)
system.cpu.commit.numCommittedDist::1           28689      7.18%     83.33% # Number of insts commited each cycle (Count)
system.cpu.commit.numCommittedDist::2           47596     11.90%     95.23% # Number of insts commited each cycle (Count)
system.cpu.commit.numCommittedDist::3            2547      0.64%     95.87% # Number of insts commited each cycle (Count)
system.cpu.commit.numCommittedDist::4             565      0.14%     96.01% # Number of insts commited each cycle (Count)
system.cpu.commit.numCommittedDist::5            1428      0.36%     96.37% # Number of insts commited each cycle (Count)
system.cpu.commit.numCommittedDist::6            5637      1.41%     97.78% # Number of insts commited each cycle (Count)
system.cpu.commit.numCommittedDist::7             102      0.03%     97.80% # Number of insts commited each cycle (Count)
system.cpu.commit.numCommittedDist::8            8779      2.20%    100.00% # Number of insts commited each cycle (Count)
system.cpu.commit.numCommittedDist::overflows            0      0.00%    100.00% # Number of insts commited each cycle (Count)
system.cpu.commit.numCommittedDist::min_value            0                       # Number of insts commited each cycle (Count)
system.cpu.commit.numCommittedDist::max_value            8                       # Number of insts commited each cycle (Count)
system.cpu.commit.numCommittedDist::total       399827                       # Number of insts commited each cycle (Count)
system.cpu.commit.instsCommitted               123096                       # Number of instructions committed (Count)
system.cpu.commit.opsCommitted                 245690                       # Number of ops (including micro ops) committed (Count)
system.cpu.commit.memRefs                       76918                       # Number of memory references committed (Count)
system.cpu.commit.loads                         75280                       # Number of loads committed (Count)
system.cpu.commit.amos                              0                       # Number of atomic instructions committed (Count)
system.cpu.commit.membars                           0                       # Number of memory barriers committed (Count)
system.cpu.commit.branches                       9935                       # Number of branches committed (Count)
system.cpu.commit.vectorInstructions                0                       # Number of committed Vector instructions. (Count)
system.cpu.commit.floating                     148608                       # Number of committed floating point instructions. (Count)
system.cpu.commit.integer                      171210                       # Number of committed integer instructions. (Count)
system.cpu.commit.functionCalls                   150                       # Number of function calls committed. (Count)
system.cpu.commit.committedInstType_0::No_OpClass          195      0.08%      0.08% # Class of committed instruction (Count)
system.cpu.commit.committedInstType_0::IntAlu        94331     38.39%     38.47% # Class of committed instruction (Count)
system.cpu.commit.committedInstType_0::IntMult            5      0.00%     38.48% # Class of committed instruction (Count)
system.cpu.commit.committedInstType_0::IntDiv           21      0.01%     38.48% # Class of committed instruction (Count)
system.cpu.commit.committedInstType_0::FloatAdd          135      0.05%     38.54% # Class of committed instruction (Count)
system.cpu.commit.committedInstType_0::FloatCmp            0      0.00%     38.54% # Class of committed instruction (Count)
system.cpu.commit.committedInstType_0::FloatCvt            0      0.00%     38.54% # Class of committed instruction (Count)
system.cpu.commit.committedInstType_0::FloatMult            0      0.00%     38.54% # Class of committed instruction (Count)
system.cpu.commit.committedInstType_0::FloatMultAcc            0      0.00%     38.54% # Class of committed instruction (Count)
system.cpu.commit.committedInstType_0::FloatDiv            0      0.00%     38.54% # Class of committed instruction (Count)
system.cpu.commit.committedInstType_0::FloatMisc            0      0.00%     38.54% # Class of committed instruction (Count)
system.cpu.commit.committedInstType_0::FloatSqrt            0      0.00%     38.54% # Class of committed instruction (Count)
system.cpu.commit.committedInstType_0::SimdAdd            0      0.00%     38.54% # Class of committed instruction (Count)
system.cpu.commit.committedInstType_0::SimdAddAcc            0      0.00%     38.54% # Class of committed instruction (Count)
system.cpu.commit.committedInstType_0::SimdAlu           96      0.04%     38.58% # Class of committed instruction (Count)
system.cpu.commit.committedInstType_0::SimdCmp            0      0.00%     38.58% # Class of committed instruction (Count)
system.cpu.commit.committedInstType_0::SimdCvt           46      0.02%     38.60% # Class of committed instruction (Count)
system.cpu.commit.committedInstType_0::SimdMisc          215      0.09%     38.68% # Class of committed instruction (Count)
system.cpu.commit.committedInstType_0::SimdMult            0      0.00%     38.68% # Class of committed instruction (Count)
system.cpu.commit.committedInstType_0::SimdMultAcc            0      0.00%     38.68% # Class of committed instruction (Count)
system.cpu.commit.committedInstType_0::SimdShift            0      0.00%     38.68% # Class of committed instruction (Count)
system.cpu.commit.committedInstType_0::SimdShiftAcc            0      0.00%     38.68% # Class of committed instruction (Count)
system.cpu.commit.committedInstType_0::SimdDiv            0      0.00%     38.68% # Class of committed instruction (Count)
system.cpu.commit.committedInstType_0::SimdSqrt            0      0.00%     38.68% # Class of committed instruction (Count)
system.cpu.commit.committedInstType_0::SimdFloatAdd        73728     30.01%     68.69% # Class of committed instruction (Count)
system.cpu.commit.committedInstType_0::SimdFloatAlu            0      0.00%     68.69% # Class of committed instruction (Count)
system.cpu.commit.committedInstType_0::SimdFloatCmp            0      0.00%     68.69% # Class of committed instruction (Count)
system.cpu.commit.committedInstType_0::SimdFloatCvt            0      0.00%     68.69% # Class of committed instruction (Count)
system.cpu.commit.committedInstType_0::SimdFloatDiv            0      0.00%     68.69% # Class of committed instruction (Count)
system.cpu.commit.committedInstType_0::SimdFloatMisc            0      0.00%     68.69% # Class of committed instruction (Count)
system.cpu.commit.committedInstType_0::SimdFloatMult            0      0.00%     68.69% # Class of committed instruction (Count)
system.cpu.commit.committedInstType_0::SimdFloatMultAcc            0      0.00%     68.69% # Class of committed instruction (Count)
system.cpu.commit.committedInstType_0::SimdFloatSqrt            0      0.00%     68.69% # Class of committed instruction (Count)
system.cpu.commit.committedInstType_0::SimdReduceAdd            0      0.00%     68.69% # Class of committed instruction (Count)
system.cpu.commit.committedInstType_0::SimdReduceAlu            0      0.00%     68.69% # Class of committed instruction (Count)
system.cpu.commit.committedInstType_0::SimdReduceCmp            0      0.00%     68.69% # Class of committed instruction (Count)
system.cpu.commit.committedInstType_0::SimdFloatReduceAdd            0      0.00%     68.69% # Class of committed instruction (Count)
system.cpu.commit.committedInstType_0::SimdFloatReduceCmp            0      0.00%     68.69% # Class of committed instruction (Count)
system.cpu.commit.committedInstType_0::SimdAes            0      0.00%     68.69% # Class of committed instruction (Count)
system.cpu.commit.committedInstType_0::SimdAesMix            0      0.00%     68.69% # Class of committed instruction (Count)
system.cpu.commit.committedInstType_0::SimdSha1Hash            0      0.00%     68.69% # Class of committed instruction (Count)
system.cpu.commit.committedInstType_0::SimdSha1Hash2            0      0.00%     68.69% # Class of committed instruction (Count)
system.cpu.commit.committedInstType_0::SimdSha256Hash            0      0.00%     68.69% # Class of committed instruction (Count)
system.cpu.commit.committedInstType_0::SimdSha256Hash2            0      0.00%     68.69% # Class of committed instruction (Count)
system.cpu.commit.committedInstType_0::SimdShaSigma2            0      0.00%     68.69% # Class of committed instruction (Count)
system.cpu.commit.committedInstType_0::SimdShaSigma3            0      0.00%     68.69% # Class of committed instruction (Count)
system.cpu.commit.committedInstType_0::SimdPredAlu            0      0.00%     68.69% # Class of committed instruction (Count)
system.cpu.commit.committedInstType_0::MemRead         1498      0.61%     69.30% # Class of committed instruction (Count)
system.cpu.commit.committedInstType_0::MemWrite         1171      0.48%     69.78% # Class of committed instruction (Count)
system.cpu.commit.committedInstType_0::FloatMemRead        73782     30.03%     99.81% # Class of committed instruction (Count)
system.cpu.commit.committedInstType_0::FloatMemWrite          467      0.19%    100.00% # Class of committed instruction (Count)
system.cpu.commit.committedInstType_0::IprAccess            0      0.00%    100.00% # Class of committed instruction (Count)
system.cpu.commit.committedInstType_0::InstPrefetch            0      0.00%    100.00% # Class of committed instruction (Count)
system.cpu.commit.committedInstType_0::total       245690                       # Class of committed instruction (Count)
system.cpu.commit.commitEligibleSamples          8779                       # number cycles where commit BW limit reached (Cycle)
system.cpu.dcache.demandHits::cpu.data          15960                       # number of demand (read+write) hits (Count)
system.cpu.dcache.demandHits::total             15960                       # number of demand (read+write) hits (Count)
system.cpu.dcache.overallHits::cpu.data         15960                       # number of overall hits (Count)
system.cpu.dcache.overallHits::total            15960                       # number of overall hits (Count)
system.cpu.dcache.demandMisses::cpu.data        66512                       # number of demand (read+write) misses (Count)
system.cpu.dcache.demandMisses::total           66512                       # number of demand (read+write) misses (Count)
system.cpu.dcache.overallMisses::cpu.data        66512                       # number of overall misses (Count)
system.cpu.dcache.overallMisses::total          66512                       # number of overall misses (Count)
system.cpu.dcache.demandMissLatency::cpu.data   2042344999                       # number of demand (read+write) miss ticks (Tick)
system.cpu.dcache.demandMissLatency::total   2042344999                       # number of demand (read+write) miss ticks (Tick)
system.cpu.dcache.overallMissLatency::cpu.data   2042344999                       # number of overall miss ticks (Tick)
system.cpu.dcache.overallMissLatency::total   2042344999                       # number of overall miss ticks (Tick)
system.cpu.dcache.demandAccesses::cpu.data        82472                       # number of demand (read+write) accesses (Count)
system.cpu.dcache.demandAccesses::total         82472                       # number of demand (read+write) accesses (Count)
system.cpu.dcache.overallAccesses::cpu.data        82472                       # number of overall (read+write) accesses (Count)
system.cpu.dcache.overallAccesses::total        82472                       # number of overall (read+write) accesses (Count)
system.cpu.dcache.demandMissRate::cpu.data     0.806480                       # miss rate for demand accesses (Ratio)
system.cpu.dcache.demandMissRate::total      0.806480                       # miss rate for demand accesses (Ratio)
system.cpu.dcache.overallMissRate::cpu.data     0.806480                       # miss rate for overall accesses (Ratio)
system.cpu.dcache.overallMissRate::total     0.806480                       # miss rate for overall accesses (Ratio)
system.cpu.dcache.demandAvgMissLatency::cpu.data 30706.413865                       # average overall miss latency ((Cycle/Count))
system.cpu.dcache.demandAvgMissLatency::total 30706.413865                       # average overall miss latency ((Cycle/Count))
system.cpu.dcache.overallAvgMissLatency::cpu.data 30706.413865                       # average overall miss latency ((Cycle/Count))
system.cpu.dcache.overallAvgMissLatency::total 30706.413865                       # average overall miss latency ((Cycle/Count))
system.cpu.dcache.blockedCycles::no_mshrs       298226                       # number of cycles access was blocked (Cycle)
system.cpu.dcache.blockedCycles::no_targets            0                       # number of cycles access was blocked (Cycle)
system.cpu.dcache.blockedCauses::no_mshrs        46609                       # number of times access was blocked (Count)
system.cpu.dcache.blockedCauses::no_targets            0                       # number of times access was blocked (Count)
system.cpu.dcache.avgBlocked::no_mshrs       6.398464                       # average number of cycles each access was blocked ((Cycle/Count))
system.cpu.dcache.avgBlocked::no_targets          nan                       # average number of cycles each access was blocked ((Cycle/Count))
system.cpu.dcache.writebacks::writebacks        47404                       # number of writebacks (Count)
system.cpu.dcache.writebacks::total             47404                       # number of writebacks (Count)
system.cpu.dcache.demandMshrHits::cpu.data        18948                       # number of demand (read+write) MSHR hits (Count)
system.cpu.dcache.demandMshrHits::total         18948                       # number of demand (read+write) MSHR hits (Count)
system.cpu.dcache.overallMshrHits::cpu.data        18948                       # number of overall MSHR hits (Count)
system.cpu.dcache.overallMshrHits::total        18948                       # number of overall MSHR hits (Count)
system.cpu.dcache.demandMshrMisses::cpu.data        47564                       # number of demand (read+write) MSHR misses (Count)
system.cpu.dcache.demandMshrMisses::total        47564                       # number of demand (read+write) MSHR misses (Count)
system.cpu.dcache.overallMshrMisses::cpu.data        47564                       # number of overall MSHR misses (Count)
system.cpu.dcache.overallMshrMisses::total        47564                       # number of overall MSHR misses (Count)
system.cpu.dcache.demandMshrMissLatency::cpu.data   1429973234                       # number of demand (read+write) MSHR miss ticks (Tick)
system.cpu.dcache.demandMshrMissLatency::total   1429973234                       # number of demand (read+write) MSHR miss ticks (Tick)
system.cpu.dcache.overallMshrMissLatency::cpu.data   1429973234                       # number of overall MSHR miss ticks (Tick)
system.cpu.dcache.overallMshrMissLatency::total   1429973234                       # number of overall MSHR miss ticks (Tick)
system.cpu.dcache.demandMshrMissRate::cpu.data     0.576729                       # mshr miss ratio for demand accesses (Ratio)
system.cpu.dcache.demandMshrMissRate::total     0.576729                       # mshr miss ratio for demand accesses (Ratio)
system.cpu.dcache.overallMshrMissRate::cpu.data     0.576729                       # mshr miss ratio for overall accesses (Ratio)
system.cpu.dcache.overallMshrMissRate::total     0.576729                       # mshr miss ratio for overall accesses (Ratio)
system.cpu.dcache.demandAvgMshrMissLatency::cpu.data 30064.192120                       # average overall mshr miss latency ((Cycle/Count))
system.cpu.dcache.demandAvgMshrMissLatency::total 30064.192120                       # average overall mshr miss latency ((Cycle/Count))
system.cpu.dcache.overallAvgMshrMissLatency::cpu.data 30064.192120                       # average overall mshr miss latency ((Cycle/Count))
system.cpu.dcache.overallAvgMshrMissLatency::total 30064.192120                       # average overall mshr miss latency ((Cycle/Count))
system.cpu.dcache.replacements                  47404                       # number of replacements (Count)
system.cpu.dcache.ReadReq.hits::cpu.data        14479                       # number of ReadReq hits (Count)
system.cpu.dcache.ReadReq.hits::total           14479                       # number of ReadReq hits (Count)
system.cpu.dcache.ReadReq.misses::cpu.data        66355                       # number of ReadReq misses (Count)
system.cpu.dcache.ReadReq.misses::total         66355                       # number of ReadReq misses (Count)
system.cpu.dcache.ReadReq.missLatency::cpu.data   2027602000                       # number of ReadReq miss ticks (Tick)
system.cpu.dcache.ReadReq.missLatency::total   2027602000                       # number of ReadReq miss ticks (Tick)
system.cpu.dcache.ReadReq.accesses::cpu.data        80834                       # number of ReadReq accesses(hits+misses) (Count)
system.cpu.dcache.ReadReq.accesses::total        80834                       # number of ReadReq accesses(hits+misses) (Count)
system.cpu.dcache.ReadReq.missRate::cpu.data     0.820880                       # miss rate for ReadReq accesses (Ratio)
system.cpu.dcache.ReadReq.missRate::total     0.820880                       # miss rate for ReadReq accesses (Ratio)
system.cpu.dcache.ReadReq.avgMissLatency::cpu.data 30556.883430                       # average ReadReq miss latency ((Tick/Count))
system.cpu.dcache.ReadReq.avgMissLatency::total 30556.883430                       # average ReadReq miss latency ((Tick/Count))
system.cpu.dcache.ReadReq.mshrHits::cpu.data        18946                       # number of ReadReq MSHR hits (Count)
system.cpu.dcache.ReadReq.mshrHits::total        18946                       # number of ReadReq MSHR hits (Count)
system.cpu.dcache.ReadReq.mshrMisses::cpu.data        47409                       # number of ReadReq MSHR misses (Count)
system.cpu.dcache.ReadReq.mshrMisses::total        47409                       # number of ReadReq MSHR misses (Count)
system.cpu.dcache.ReadReq.mshrMissLatency::cpu.data   1415544235                       # number of ReadReq MSHR miss ticks (Tick)
system.cpu.dcache.ReadReq.mshrMissLatency::total   1415544235                       # number of ReadReq MSHR miss ticks (Tick)
system.cpu.dcache.ReadReq.mshrMissRate::cpu.data     0.586498                       # mshr miss rate for ReadReq accesses (Ratio)
system.cpu.dcache.ReadReq.mshrMissRate::total     0.586498                       # mshr miss rate for ReadReq accesses (Ratio)
system.cpu.dcache.ReadReq.avgMshrMissLatency::cpu.data 29858.133160                       # average ReadReq mshr miss latency ((Tick/Count))
system.cpu.dcache.ReadReq.avgMshrMissLatency::total 29858.133160                       # average ReadReq mshr miss latency ((Tick/Count))
system.cpu.dcache.WriteReq.hits::cpu.data         1481                       # number of WriteReq hits (Count)
system.cpu.dcache.WriteReq.hits::total           1481                       # number of WriteReq hits (Count)
system.cpu.dcache.WriteReq.misses::cpu.data          157                       # number of WriteReq misses (Count)
system.cpu.dcache.WriteReq.misses::total          157                       # number of WriteReq misses (Count)
system.cpu.dcache.WriteReq.missLatency::cpu.data     14742999                       # number of WriteReq miss ticks (Tick)
system.cpu.dcache.WriteReq.missLatency::total     14742999                       # number of WriteReq miss ticks (Tick)
system.cpu.dcache.WriteReq.accesses::cpu.data         1638                       # number of WriteReq accesses(hits+misses) (Count)
system.cpu.dcache.WriteReq.accesses::total         1638                       # number of WriteReq accesses(hits+misses) (Count)
system.cpu.dcache.WriteReq.missRate::cpu.data     0.095849                       # miss rate for WriteReq accesses (Ratio)
system.cpu.dcache.WriteReq.missRate::total     0.095849                       # miss rate for WriteReq accesses (Ratio)
system.cpu.dcache.WriteReq.avgMissLatency::cpu.data 93904.452229                       # average WriteReq miss latency ((Tick/Count))
system.cpu.dcache.WriteReq.avgMissLatency::total 93904.452229                       # average WriteReq miss latency ((Tick/Count))
system.cpu.dcache.WriteReq.mshrHits::cpu.data            2                       # number of WriteReq MSHR hits (Count)
system.cpu.dcache.WriteReq.mshrHits::total            2                       # number of WriteReq MSHR hits (Count)
system.cpu.dcache.WriteReq.mshrMisses::cpu.data          155                       # number of WriteReq MSHR misses (Count)
system.cpu.dcache.WriteReq.mshrMisses::total          155                       # number of WriteReq MSHR misses (Count)
system.cpu.dcache.WriteReq.mshrMissLatency::cpu.data     14428999                       # number of WriteReq MSHR miss ticks (Tick)
system.cpu.dcache.WriteReq.mshrMissLatency::total     14428999                       # number of WriteReq MSHR miss ticks (Tick)
system.cpu.dcache.WriteReq.mshrMissRate::cpu.data     0.094628                       # mshr miss rate for WriteReq accesses (Ratio)
system.cpu.dcache.WriteReq.mshrMissRate::total     0.094628                       # mshr miss rate for WriteReq accesses (Ratio)
system.cpu.dcache.WriteReq.avgMshrMissLatency::cpu.data 93090.316129                       # average WriteReq mshr miss latency ((Tick/Count))
system.cpu.dcache.WriteReq.avgMshrMissLatency::total 93090.316129                       # average WriteReq mshr miss latency ((Tick/Count))
system.cpu.dcache.power_state.pwrStateResidencyTicks::UNDEFINED    421874000                       # Cumulative time (in ticks) in various power states (Tick)
system.cpu.dcache.tags.tagsInUse           121.315412                       # Average ticks per tags in use ((Tick/Count))
system.cpu.dcache.tags.totalRefs                63528                       # Total number of references to valid blocks. (Count)
system.cpu.dcache.tags.sampledRefs              47530                       # Sample count of references to valid blocks. (Count)
system.cpu.dcache.tags.avgRefs               1.336587                       # Average number of references to valid blocks. ((Count/Count))
system.cpu.dcache.tags.warmupTick              225000                       # The tick when the warmup percentage was hit. (Tick)
system.cpu.dcache.tags.occupancies::cpu.data   121.315412                       # Average occupied blocks per tick, per requestor ((Count/Tick))
system.cpu.dcache.tags.avgOccs::cpu.data     0.947777                       # Average percentage of cache occupancy ((Ratio/Tick))
system.cpu.dcache.tags.avgOccs::total        0.947777                       # Average percentage of cache occupancy ((Ratio/Tick))
system.cpu.dcache.tags.occupanciesTaskId::1024          126                       # Occupied blocks per task id (Count)
system.cpu.dcache.tags.ageTaskId_1024::0           31                       # Occupied blocks per task id, per block age (Count)
system.cpu.dcache.tags.ageTaskId_1024::2           95                       # Occupied blocks per task id, per block age (Count)
system.cpu.dcache.tags.ratioOccsTaskId::1024     0.984375                       # Ratio of occupied blocks and all blocks, per task id (Ratio)
system.cpu.dcache.tags.tagAccesses             212474                       # Number of tag accesses (Count)
system.cpu.dcache.tags.dataAccesses            212474                       # Number of data accesses (Count)
system.cpu.dcache.tags.power_state.pwrStateResidencyTicks::UNDEFINED    421874000                       # Cumulative time (in ticks) in various power states (Tick)
system.cpu.decode.idleCycles                    24853                       # Number of cycles decode is idle (Cycle)
system.cpu.decode.blockedCycles                342573                       # Number of cycles decode is blocked (Cycle)
system.cpu.decode.runCycles                     11152                       # Number of cycles decode is running (Cycle)
system.cpu.decode.unblockCycles                 22820                       # Number of cycles decode is unblocking (Cycle)
system.cpu.decode.squashCycles                    610                       # Number of cycles decode is squashing (Cycle)
system.cpu.decode.branchResolved                 9546                       # Number of times decode resolved a branch (Count)
system.cpu.decode.branchMispred                   223                       # Number of times decode detected a branch misprediction (Count)
system.cpu.decode.decodedInsts                 263555                       # Number of instructions handled by decode (Count)
system.cpu.decode.squashedInsts                  1008                       # Number of squashed instructions handled by decode (Count)
system.cpu.fetch.icacheStallCycles              33002                       # Number of cycles fetch is stalled on an Icache miss (Cycle)
system.cpu.fetch.insts                         134702                       # Number of instructions fetch has processed (Count)
system.cpu.fetch.branches                       12409                       # Number of branches that fetch encountered (Count)
system.cpu.fetch.predictedBranches               9717                       # Number of branches that fetch has predicted taken (Count)
system.cpu.fetch.cycles                        367308                       # Number of cycles fetch has run and was not squashing or blocked (Cycle)
system.cpu.fetch.squashCycles                    1662                       # Number of cycles fetch has spent squashing (Cycle)
system.cpu.fetch.miscStallCycles                  124                       # Number of cycles fetch has spent waiting on interrupts, or bad addresses, or out of MSHRs (Cycle)
system.cpu.fetch.pendingTrapStallCycles           726                       # Number of stall cycles due to pending traps (Cycle)
system.cpu.fetch.pendingQuiesceStallCycles            2                       # Number of stall cycles due to pending quiesce instructions (Cycle)
system.cpu.fetch.icacheWaitRetryStallCycles           15                       # Number of stall cycles due to full MSHR (Cycle)
system.cpu.fetch.cacheLines                     18828                       # Number of cache lines fetched (Count)
system.cpu.fetch.icacheSquashes                   372                       # Number of outstanding Icache misses that were squashed (Count)
system.cpu.fetch.nisnDist::samples             402008                       # Number of instructions fetched each cycle (Total) (Count)
system.cpu.fetch.nisnDist::mean              0.665323                       # Number of instructions fetched each cycle (Total) (Count)
system.cpu.fetch.nisnDist::stdev             2.045027                       # Number of instructions fetched each cycle (Total) (Count)
system.cpu.fetch.nisnDist::underflows               0      0.00%      0.00% # Number of instructions fetched each cycle (Total) (Count)
system.cpu.fetch.nisnDist::0                   357663     88.97%     88.97% # Number of instructions fetched each cycle (Total) (Count)
system.cpu.fetch.nisnDist::1                     4325      1.08%     90.04% # Number of instructions fetched each cycle (Total) (Count)
system.cpu.fetch.nisnDist::2                      288      0.07%     90.12% # Number of instructions fetched each cycle (Total) (Count)
system.cpu.fetch.nisnDist::3                     1941      0.48%     90.60% # Number of instructions fetched each cycle (Total) (Count)
system.cpu.fetch.nisnDist::4                     6169      1.53%     92.13% # Number of instructions fetched each cycle (Total) (Count)
system.cpu.fetch.nisnDist::5                     4457      1.11%     93.24% # Number of instructions fetched each cycle (Total) (Count)
system.cpu.fetch.nisnDist::6                      332      0.08%     93.33% # Number of instructions fetched each cycle (Total) (Count)
system.cpu.fetch.nisnDist::7                     6876      1.71%     95.04% # Number of instructions fetched each cycle (Total) (Count)
system.cpu.fetch.nisnDist::8                    19957      4.96%    100.00% # Number of instructions fetched each cycle (Total) (Count)
system.cpu.fetch.nisnDist::overflows                0      0.00%    100.00% # Number of instructions fetched each cycle (Total) (Count)
system.cpu.fetch.nisnDist::min_value                0                       # Number of instructions fetched each cycle (Total) (Count)
system.cpu.fetch.nisnDist::max_value                8                       # Number of instructions fetched each cycle (Total) (Count)
system.cpu.fetch.nisnDist::total               402008                       # Number of instructions fetched each cycle (Total) (Count)
system.cpu.fetch.branchRate                  0.029414                       # Number of branch fetches per cycle (Ratio)
system.cpu.fetch.rate                        0.319294                       # Number of inst fetches per cycle ((Count/Cycle))
system.cpu.icache.demandHits::cpu.inst          18210                       # number of demand (read+write) hits (Count)
system.cpu.icache.demandHits::total             18210                       # number of demand (read+write) hits (Count)
system.cpu.icache.overallHits::cpu.inst         18210                       # number of overall hits (Count)
system.cpu.icache.overallHits::total            18210                       # number of overall hits (Count)
system.cpu.icache.demandMisses::cpu.inst          618                       # number of demand (read+write) misses (Count)
system.cpu.icache.demandMisses::total             618                       # number of demand (read+write) misses (Count)
system.cpu.icache.overallMisses::cpu.inst          618                       # number of overall misses (Count)
system.cpu.icache.overallMisses::total            618                       # number of overall misses (Count)
system.cpu.icache.demandMissLatency::cpu.inst     60291999                       # number of demand (read+write) miss ticks (Tick)
system.cpu.icache.demandMissLatency::total     60291999                       # number of demand (read+write) miss ticks (Tick)
system.cpu.icache.overallMissLatency::cpu.inst     60291999                       # number of overall miss ticks (Tick)
system.cpu.icache.overallMissLatency::total     60291999                       # number of overall miss ticks (Tick)
system.cpu.icache.demandAccesses::cpu.inst        18828                       # number of demand (read+write) accesses (Count)
system.cpu.icache.demandAccesses::total         18828                       # number of demand (read+write) accesses (Count)
system.cpu.icache.overallAccesses::cpu.inst        18828                       # number of overall (read+write) accesses (Count)
system.cpu.icache.overallAccesses::total        18828                       # number of overall (read+write) accesses (Count)
system.cpu.icache.demandMissRate::cpu.inst     0.032823                       # miss rate for demand accesses (Ratio)
system.cpu.icache.demandMissRate::total      0.032823                       # miss rate for demand accesses (Ratio)
system.cpu.icache.overallMissRate::cpu.inst     0.032823                       # miss rate for overall accesses (Ratio)
system.cpu.icache.overallMissRate::total     0.032823                       # miss rate for overall accesses (Ratio)
system.cpu.icache.demandAvgMissLatency::cpu.inst 97559.868932                       # average overall miss latency ((Cycle/Count))
system.cpu.icache.demandAvgMissLatency::total 97559.868932                       # average overall miss latency ((Cycle/Count))
system.cpu.icache.overallAvgMissLatency::cpu.inst 97559.868932                       # average overall miss latency ((Cycle/Count))
system.cpu.icache.overallAvgMissLatency::total 97559.868932                       # average overall miss latency ((Cycle/Count))
system.cpu.icache.blockedCycles::no_mshrs          209                       # number of cycles access was blocked (Cycle)
system.cpu.icache.blockedCycles::no_targets            0                       # number of cycles access was blocked (Cycle)
system.cpu.icache.blockedCauses::no_mshrs            5                       # number of times access was blocked (Count)
system.cpu.icache.blockedCauses::no_targets            0                       # number of times access was blocked (Count)
system.cpu.icache.avgBlocked::no_mshrs      41.800000                       # average number of cycles each access was blocked ((Cycle/Count))
system.cpu.icache.avgBlocked::no_targets          nan                       # average number of cycles each access was blocked ((Cycle/Count))
system.cpu.icache.demandMshrHits::cpu.inst          132                       # number of demand (read+write) MSHR hits (Count)
system.cpu.icache.demandMshrHits::total           132                       # number of demand (read+write) MSHR hits (Count)
system.cpu.icache.overallMshrHits::cpu.inst          132                       # number of overall MSHR hits (Count)
system.cpu.icache.overallMshrHits::total          132                       # number of overall MSHR hits (Count)
system.cpu.icache.demandMshrMisses::cpu.inst          486                       # number of demand (read+write) MSHR misses (Count)
system.cpu.icache.demandMshrMisses::total          486                       # number of demand (read+write) MSHR misses (Count)
system.cpu.icache.overallMshrMisses::cpu.inst          486                       # number of overall MSHR misses (Count)
system.cpu.icache.overallMshrMisses::total          486                       # number of overall MSHR misses (Count)
system.cpu.icache.demandMshrMissLatency::cpu.inst     49449999                       # number of demand (read+write) MSHR miss ticks (Tick)
system.cpu.icache.demandMshrMissLatency::total     49449999                       # number of demand (read+write) MSHR miss ticks (Tick)
system.cpu.icache.overallMshrMissLatency::cpu.inst     49449999                       # number of overall MSHR miss ticks (Tick)
system.cpu.icache.overallMshrMissLatency::total     49449999                       # number of overall MSHR miss ticks (Tick)
system.cpu.icache.demandMshrMissRate::cpu.inst     0.025813                       # mshr miss ratio for demand accesses (Ratio)
system.cpu.icache.demandMshrMissRate::total     0.025813                       # mshr miss ratio for demand accesses (Ratio)
system.cpu.icache.overallMshrMissRate::cpu.inst     0.025813                       # mshr miss ratio for overall accesses (Ratio)
system.cpu.icache.overallMshrMissRate::total     0.025813                       # mshr miss ratio for overall accesses (Ratio)
system.cpu.icache.demandAvgMshrMissLatency::cpu.inst 101748.969136                       # average overall mshr miss latency ((Cycle/Count))
system.cpu.icache.demandAvgMshrMissLatency::total 101748.969136                       # average overall mshr miss latency ((Cycle/Count))
system.cpu.icache.overallAvgMshrMissLatency::cpu.inst 101748.969136                       # average overall mshr miss latency ((Cycle/Count))
system.cpu.icache.overallAvgMshrMissLatency::total 101748.969136                       # average overall mshr miss latency ((Cycle/Count))
system.cpu.icache.replacements                    240                       # number of replacements (Count)
system.cpu.icache.ReadReq.hits::cpu.inst        18210                       # number of ReadReq hits (Count)
system.cpu.icache.ReadReq.hits::total           18210                       # number of ReadReq hits (Count)
system.cpu.icache.ReadReq.misses::cpu.inst          618                       # number of ReadReq misses (Count)
system.cpu.icache.ReadReq.misses::total           618                       # number of ReadReq misses (Count)
system.cpu.icache.ReadReq.missLatency::cpu.inst     60291999                       # number of ReadReq miss ticks (Tick)
system.cpu.icache.ReadReq.missLatency::total     60291999                       # number of ReadReq miss ticks (Tick)
system.cpu.icache.ReadReq.accesses::cpu.inst        18828                       # number of ReadReq accesses(hits+misses) (Count)
system.cpu.icache.ReadReq.accesses::total        18828                       # number of ReadReq accesses(hits+misses) (Count)
system.cpu.icache.ReadReq.missRate::cpu.inst     0.032823                       # miss rate for ReadReq accesses (Ratio)
system.cpu.icache.ReadReq.missRate::total     0.032823                       # miss rate for ReadReq accesses (Ratio)
system.cpu.icache.ReadReq.avgMissLatency::cpu.inst 97559.868932                       # average ReadReq miss latency ((Tick/Count))
system.cpu.icache.ReadReq.avgMissLatency::total 97559.868932                       # average ReadReq miss latency ((Tick/Count))
system.cpu.icache.ReadReq.mshrHits::cpu.inst          132                       # number of ReadReq MSHR hits (Count)
system.cpu.icache.ReadReq.mshrHits::total          132                       # number of ReadReq MSHR hits (Count)
system.cpu.icache.ReadReq.mshrMisses::cpu.inst          486                       # number of ReadReq MSHR misses (Count)
system.cpu.icache.ReadReq.mshrMisses::total          486                       # number of ReadReq MSHR misses (Count)
system.cpu.icache.ReadReq.mshrMissLatency::cpu.inst     49449999                       # number of ReadReq MSHR miss ticks (Tick)
system.cpu.icache.ReadReq.mshrMissLatency::total     49449999                       # number of ReadReq MSHR miss ticks (Tick)
system.cpu.icache.ReadReq.mshrMissRate::cpu.inst     0.025813                       # mshr miss rate for ReadReq accesses (Ratio)
system.cpu.icache.ReadReq.mshrMissRate::total     0.025813                       # mshr miss rate for ReadReq accesses (Ratio)
system.cpu.icache.ReadReq.avgMshrMissLatency::cpu.inst 101748.969136                       # average ReadReq mshr miss latency ((Tick/Count))
system.cpu.icache.ReadReq.avgMshrMissLatency::total 101748.969136                       # average ReadReq mshr miss latency ((Tick/Count))
system.cpu.icache.power_state.pwrStateResidencyTicks::UNDEFINED    421874000                       # Cumulative time (in ticks) in various power states (Tick)
system.cpu.icache.tags.tagsInUse           232.118808                       # Average ticks per tags in use ((Tick/Count))
system.cpu.icache.tags.totalRefs                18695                       # Total number of references to valid blocks. (Count)
system.cpu.icache.tags.sampledRefs                485                       # Sample count of references to valid blocks. (Count)
system.cpu.icache.tags.avgRefs              38.546392                       # Average number of references to valid blocks. ((Count/Count))
system.cpu.icache.tags.warmupTick              107000                       # The tick when the warmup percentage was hit. (Tick)
system.cpu.icache.tags.occupancies::cpu.inst   232.118808                       # Average occupied blocks per tick, per requestor ((Count/Tick))
system.cpu.icache.tags.avgOccs::cpu.inst     0.906714                       # Average percentage of cache occupancy ((Ratio/Tick))
system.cpu.icache.tags.avgOccs::total        0.906714                       # Average percentage of cache occupancy ((Ratio/Tick))
system.cpu.icache.tags.occupanciesTaskId::1024          245                       # Occupied blocks per task id (Count)
system.cpu.icache.tags.ageTaskId_1024::0           39                       # Occupied blocks per task id, per block age (Count)
system.cpu.icache.tags.ageTaskId_1024::2          206                       # Occupied blocks per task id, per block age (Count)
system.cpu.icache.tags.ratioOccsTaskId::1024     0.957031                       # Ratio of occupied blocks and all blocks, per task id (Ratio)
system.cpu.icache.tags.tagAccesses              38141                       # Number of tag accesses (Count)
system.cpu.icache.tags.dataAccesses             38141                       # Number of data accesses (Count)
system.cpu.icache.tags.power_state.pwrStateResidencyTicks::UNDEFINED    421874000                       # Cumulative time (in ticks) in various power states (Tick)
system.cpu.interrupts.clk_domain.clock          16000                       # Clock period in ticks (Tick)
system.cpu.lsq0.forwLoads                         220                       # Number of loads that had data forwarded from stores (Count)
system.cpu.lsq0.squashedLoads                    1683                       # Number of loads squashed (Count)
system.cpu.lsq0.ignoredResponses                    1                       # Number of memory responses ignored because the instruction is squashed (Count)
system.cpu.lsq0.memOrderViolation                  15                       # Number of memory ordering violations (Count)
system.cpu.lsq0.squashedStores                   1118                       # Number of stores squashed (Count)
system.cpu.lsq0.rescheduledLoads                    1                       # Number of loads that were rescheduled (Count)
system.cpu.lsq0.blockedByCache                  45962                       # Number of times an access to memory failed due to the cache being blocked (Count)
system.cpu.lsq0.loadToUse::samples              75280                       # Distribution of cycle latency between the first time a load is issued and its completion (Unspecified)
system.cpu.lsq0.loadToUse::mean            100.762726                       # Distribution of cycle latency between the first time a load is issued and its completion (Unspecified)
system.cpu.lsq0.loadToUse::stdev            68.115260                       # Distribution of cycle latency between the first time a load is issued and its completion (Unspecified)
system.cpu.lsq0.loadToUse::0-9                   4674      6.21%      6.21% # Distribution of cycle latency between the first time a load is issued and its completion (Unspecified)
system.cpu.lsq0.loadToUse::10-19                 2214      2.94%      9.15% # Distribution of cycle latency between the first time a load is issued and its completion (Unspecified)
system.cpu.lsq0.loadToUse::20-29                 2884      3.83%     12.98% # Distribution of cycle latency between the first time a load is issued and its completion (Unspecified)
system.cpu.lsq0.loadToUse::30-39                 4222      5.61%     18.59% # Distribution of cycle latency between the first time a load is issued and its completion (Unspecified)
system.cpu.lsq0.loadToUse::40-49                 3769      5.01%     23.60% # Distribution of cycle latency between the first time a load is issued and its completion (Unspecified)
system.cpu.lsq0.loadToUse::50-59                 5278      7.01%     30.61% # Distribution of cycle latency between the first time a load is issued and its completion (Unspecified)
system.cpu.lsq0.loadToUse::60-69                 5689      7.56%     38.16% # Distribution of cycle latency between the first time a load is issued and its completion (Unspecified)
system.cpu.lsq0.loadToUse::70-79                 4407      5.85%     44.02% # Distribution of cycle latency between the first time a load is issued and its completion (Unspecified)
system.cpu.lsq0.loadToUse::80-89                 4796      6.37%     50.39% # Distribution of cycle latency between the first time a load is issued and its completion (Unspecified)
system.cpu.lsq0.loadToUse::90-99                 4151      5.51%     55.90% # Distribution of cycle latency between the first time a load is issued and its completion (Unspecified)
system.cpu.lsq0.loadToUse::100-109               3813      5.07%     60.97% # Distribution of cycle latency between the first time a load is issued and its completion (Unspecified)
system.cpu.lsq0.loadToUse::110-119               4157      5.52%     66.49% # Distribution of cycle latency between the first time a load is issued and its completion (Unspecified)
system.cpu.lsq0.loadToUse::120-129               3651      4.85%     71.34% # Distribution of cycle latency between the first time a load is issued and its completion (Unspecified)
system.cpu.lsq0.loadToUse::130-139               2838      3.77%     75.11% # Distribution of cycle latency between the first time a load is issued and its completion (Unspecified)
system.cpu.lsq0.loadToUse::140-149               2772      3.68%     78.79% # Distribution of cycle latency between the first time a load is issued and its completion (Unspecified)
system.cpu.lsq0.loadToUse::150-159               2296      3.05%     81.84% # Distribution of cycle latency between the first time a load is issued and its completion (Unspecified)
system.cpu.lsq0.loadToUse::160-169               1988      2.64%     84.48% # Distribution of cycle latency between the first time a load is issued and its completion (Unspecified)
system.cpu.lsq0.loadToUse::170-179               1899      2.52%     87.01% # Distribution of cycle latency between the first time a load is issued and its completion (Unspecified)
system.cpu.lsq0.loadToUse::180-189               1617      2.15%     89.15% # Distribution of cycle latency between the first time a load is issued and its completion (Unspecified)
system.cpu.lsq0.loadToUse::190-199               1328      1.76%     90.92% # Distribution of cycle latency between the first time a load is issued and its completion (Unspecified)
system.cpu.lsq0.loadToUse::200-209               1135      1.51%     92.43% # Distribution of cycle latency between the first time a load is issued and its completion (Unspecified)
system.cpu.lsq0.loadToUse::210-219               1007      1.34%     93.76% # Distribution of cycle latency between the first time a load is issued and its completion (Unspecified)
system.cpu.lsq0.loadToUse::220-229                828      1.10%     94.86% # Distribution of cycle latency between the first time a load is issued and its completion (Unspecified)
system.cpu.lsq0.loadToUse::230-239                719      0.96%     95.82% # Distribution of cycle latency between the first time a load is issued and its completion (Unspecified)
system.cpu.lsq0.loadToUse::240-249                619      0.82%     96.64% # Distribution of cycle latency between the first time a load is issued and its completion (Unspecified)
system.cpu.lsq0.loadToUse::250-259                518      0.69%     97.33% # Distribution of cycle latency between the first time a load is issued and its completion (Unspecified)
system.cpu.lsq0.loadToUse::260-269                431      0.57%     97.90% # Distribution of cycle latency between the first time a load is issued and its completion (Unspecified)
system.cpu.lsq0.loadToUse::270-279                346      0.46%     98.36% # Distribution of cycle latency between the first time a load is issued and its completion (Unspecified)
system.cpu.lsq0.loadToUse::280-289                266      0.35%     98.71% # Distribution of cycle latency between the first time a load is issued and its completion (Unspecified)
system.cpu.lsq0.loadToUse::290-299                229      0.30%     99.02% # Distribution of cycle latency between the first time a load is issued and its completion (Unspecified)
system.cpu.lsq0.loadToUse::overflows              739      0.98%    100.00% # Distribution of cycle latency between the first time a load is issued and its completion (Unspecified)
system.cpu.lsq0.loadToUse::min_value                2                       # Distribution of cycle latency between the first time a load is issued and its completion (Unspecified)
system.cpu.lsq0.loadToUse::max_value              504                       # Distribution of cycle latency between the first time a load is issued and its completion (Unspecified)
system.cpu.lsq0.loadToUse::total                75280                       # Distribution of cycle latency between the first time a load is issued and its completion (Unspecified)
system.cpu.mmu.dtb.rdAccesses                   81133                       # TLB accesses on read requests (Count)
system.cpu.mmu.dtb.wrAccesses                    2267                       # TLB accesses on write requests (Count)
[...]
system.victimbus.transDist::ReadExResp            121                       # Transaction distribution (Count)
system.victimbus.transDist::ReadSharedReq        47409                       # Transaction distribution (Count)
system.victimbus.pktCount_system.cpu.dcache.mem_side_port::system.victimcache.cpu_side_port       142536                       # Packet count per connected requestor and responder (Count)
system.victimbus.pktSize_system.cpu.dcache.mem_side_port::system.victimcache.cpu_side_port      6075776                       # Cumulative packet size per connected requestor and responder (Byte)
system.victimbus.snoops                         64236                       # Total snoops (Count)
system.victimbus.snoopTraffic                 4111104                       # Total snoop traffic (Byte)
system.victimbus.snoopFanout::samples          111802                       # Request fanout histogram (Count)
system.victimbus.snoopFanout::mean           0.287848                       # Request fanout histogram (Count)
system.victimbus.snoopFanout::stdev          0.452762                       # Request fanout histogram (Count)
system.victimbus.snoopFanout::underflows            0      0.00%      0.00% # Request fanout histogram (Count)
system.victimbus.snoopFanout::0                 79620     71.22%     71.22% # Request fanout histogram (Count)
system.victimbus.snoopFanout::1                 32182     28.78%    100.00% # Request fanout histogram (Count)
system.victimbus.snoopFanout::overflows             0      0.00%    100.00% # Request fanout histogram (Count)
system.victimbus.snoopFanout::min_value             0                       # Request fanout histogram (Count)
system.victimbus.snoopFanout::max_value             1                       # Request fanout histogram (Count)
system.victimbus.snoopFanout::total            111802                       # Request fanout histogram (Count)
system.victimbus.power_state.pwrStateResidencyTicks::UNDEFINED    421874000                       # Cumulative time (in ticks) in various power states (Tick)
system.victimbus.reqLayer0.occupancy        144918727                       # Layer occupancy (ticks) (Tick)
system.victimbus.reqLayer0.utilization            0.3                       # Layer utilization (Ratio)
system.victimbus.respLayer0.occupancy       136385669                       # Layer occupancy (ticks) (Tick)
system.victimbus.respLayer0.utilization           0.3                       # Layer utilization (Ratio)
system.victimbus.snoop_filter.totRequests        96243                       # Total number of requests made to the snoop filter. (Count)
system.victimbus.snoop_filter.hitSingleRequests        48713                       # Number of requests hitting in the snoop filter with a single holder of the requested data. (Count)
system.victimbus.snoop_filter.hitMultiRequests            0                       # Number of requests hitting in the snoop filter with multiple (>1) holders of the requested data. (Count)
system.victimbus.snoop_filter.totSnoops         32182                       # Total number of snoops made to the snoop filter. (Count)
system.victimbus.snoop_filter.hitSingleSnoops        32182                       # Number of snoops hitting in the snoop filter with a single holder of the requested data. (Count)
system.victimbus.snoop_filter.hitMultiSnoops            0                       # Number of snoops hitting in the snoop filter with multiple (>1) holders of the requested data. (Count)
system.victimcache.demandHits::cpu.data         15348                       # number of demand (read+write) hits (Count)
system.victimcache.demandHits::total            15348                       # number of demand (read+write) hits (Count)
system.victimcache.overallHits::cpu.data        15348                       # number of overall hits (Count)
system.victimcache.overallHits::total           15348                       # number of overall hits (Count)
system.victimcache.demandMisses::cpu.data        32182                       # number of demand (read+write) misses (Count)
system.victimcache.demandMisses::total          32182                       # number of demand (read+write) misses (Count)
system.victimcache.overallMisses::cpu.data        32182                       # number of overall misses (Count)
system.victimcache.overallMisses::total         32182                       # number of overall misses (Count)
system.victimcache.demandMissLatency::cpu.data   1260047000                       # number of demand (read+write) miss ticks (Tick)
system.victimcache.demandMissLatency::total   1260047000                       # number of demand (read+write) miss ticks (Tick)
system.victimcache.overallMissLatency::cpu.data   1260047000                       # number of overall miss ticks (Tick)
system.victimcache.overallMissLatency::total   1260047000                       # number of overall miss ticks (Tick)
system.victimcache.demandAccesses::cpu.data        47530                       # number of demand (read+write) accesses (Count)
system.victimcache.demandAccesses::total        47530                       # number of demand (read+write) accesses (Count)
system.victimcache.overallAccesses::cpu.data        47530                       # number of overall (read+write) accesses (Count)
system.victimcache.overallAccesses::total        47530                       # number of overall (read+write) accesses (Count)
system.victimcache.demandMissRate::cpu.data     0.677088                       # miss rate for demand accesses (Ratio)
system.victimcache.demandMissRate::total     0.677088                       # miss rate for demand accesses (Ratio)
system.victimcache.overallMissRate::cpu.data     0.677088                       # miss rate for overall accesses (Ratio)
system.victimcache.overallMissRate::total     0.677088                       # miss rate for overall accesses (Ratio)
system.victimcache.demandAvgMissLatency::cpu.data 39153.781617                       # average overall miss latency ((Cycle/Count))
system.victimcache.demandAvgMissLatency::total 39153.781617                       # average overall miss latency ((Cycle/Count))
system.victimcache.overallAvgMissLatency::cpu.data 39153.781617                       # average overall miss latency ((Cycle/Count))
system.victimcache.overallAvgMissLatency::total 39153.781617                       # average overall miss latency ((Cycle/Count))
system.victimcache.blockedCycles::no_mshrs       169767                       # number of cycles access was blocked (Cycle)
system.victimcache.blockedCycles::no_targets            0                       # number of cycles access was blocked (Cycle)
system.victimcache.blockedCauses::no_mshrs        18183                       # number of times access was blocked (Count)
system.victimcache.blockedCauses::no_targets            0                       # number of times access was blocked (Count)
system.victimcache.avgBlocked::no_mshrs      9.336578                       # average number of cycles each access was blocked ((Cycle/Count))
system.victimcache.avgBlocked::no_targets          nan                       # average number of cycles each access was blocked ((Cycle/Count))
system.victimcache.writebacks::writebacks        64236                       # number of writebacks (Count)
system.victimcache.writebacks::total            64236                       # number of writebacks (Count)
system.victimcache.demandMshrMisses::cpu.data        32182                       # number of demand (read+write) MSHR misses (Count)
system.victimcache.demandMshrMisses::total        32182                       # number of demand (read+write) MSHR misses (Count)
system.victimcache.overallMshrMisses::cpu.data        32182                       # number of overall MSHR misses (Count)
system.victimcache.overallMshrMisses::total        32182                       # number of overall MSHR misses (Count)
system.victimcache.demandMshrMissLatency::cpu.data   1260047000                       # number of demand (read+write) MSHR miss ticks (Tick)
system.victimcache.demandMshrMissLatency::total   1260047000                       # number of demand (read+write) MSHR miss ticks (Tick)
system.victimcache.overallMshrMissLatency::cpu.data   1260047000                       # number of overall MSHR miss ticks (Tick)
system.victimcache.overallMshrMissLatency::total   1260047000                       # number of overall MSHR miss ticks (Tick)
system.victimcache.demandMshrMissRate::cpu.data     0.677088                       # mshr miss ratio for demand accesses (Ratio)
system.victimcache.demandMshrMissRate::total     0.677088                       # mshr miss ratio for demand accesses (Ratio)
system.victimcache.overallMshrMissRate::cpu.data     0.677088                       # mshr miss ratio for overall accesses (Ratio)
system.victimcache.overallMshrMissRate::total     0.677088                       # mshr miss ratio for overall accesses (Ratio)
system.victimcache.demandAvgMshrMissLatency::cpu.data 39153.781617                       # average overall mshr miss latency ((Cycle/Count))
system.victimcache.demandAvgMshrMissLatency::total 39153.781617                       # average overall mshr miss latency ((Cycle/Count))
system.victimcache.overallAvgMshrMissLatency::cpu.data 39153.781617                       # average overall mshr miss latency ((Cycle/Count))
system.victimcache.overallAvgMshrMissLatency::total 39153.781617                       # average overall mshr miss latency ((Cycle/Count))
system.victimcache.replacements                 32054                       # number of replacements (Count)
system.victimcache.ReadExReq.misses::cpu.data          121                       # number of ReadExReq misses (Count)
system.victimcache.ReadExReq.misses::total          121                       # number of ReadExReq misses (Count)
system.victimcache.ReadExReq.missLatency::cpu.data     12136000                       # number of ReadExReq miss ticks (Tick)
system.victimcache.ReadExReq.missLatency::total     12136000                       # number of ReadExReq miss ticks (Tick)
system.victimcache.ReadExReq.accesses::cpu.data          121                       # number of ReadExReq accesses(hits+misses) (Count)
system.victimcache.ReadExReq.accesses::total          121                       # number of ReadExReq accesses(hits+misses) (Count)
system.victimcache.ReadExReq.missRate::cpu.data            1                       # miss rate for ReadExReq accesses (Ratio)
system.victimcache.ReadExReq.missRate::total            1                       # miss rate for ReadExReq accesses (Ratio)
system.victimcache.ReadExReq.avgMissLatency::cpu.data 100297.520661                       # average ReadExReq miss latency ((Tick/Count))
system.victimcache.ReadExReq.avgMissLatency::total 100297.520661                       # average ReadExReq miss latency ((Tick/Count))
system.victimcache.ReadExReq.mshrMisses::cpu.data          121                       # number of ReadExReq MSHR misses (Count)
system.victimcache.ReadExReq.mshrMisses::total          121                       # number of ReadExReq MSHR misses (Count)
system.victimcache.ReadExReq.mshrMissLatency::cpu.data     12136000                       # number of ReadExReq MSHR miss ticks (Tick)
system.victimcache.ReadExReq.mshrMissLatency::total     12136000                       # number of ReadExReq MSHR miss ticks (Tick)
system.victimcache.ReadExReq.mshrMissRate::cpu.data            1                       # mshr miss rate for ReadExReq accesses (Ratio)
system.victimcache.ReadExReq.mshrMissRate::total            1                       # mshr miss rate for ReadExReq accesses (Ratio)
system.victimcache.ReadExReq.avgMshrMissLatency::cpu.data 100297.520661                       # average ReadExReq mshr miss latency ((Tick/Count))
system.victimcache.ReadExReq.avgMshrMissLatency::total 100297.520661                       # average ReadExReq mshr miss latency ((Tick/Count))
system.victimcache.ReadSharedReq.hits::cpu.data        15348                       # number of ReadSharedReq hits (Count)
system.victimcache.ReadSharedReq.hits::total        15348                       # number of ReadSharedReq hits (Count)
system.victimcache.ReadSharedReq.misses::cpu.data        32061                       # number of ReadSharedReq misses (Count)
system.victimcache.ReadSharedReq.misses::total        32061                       # number of ReadSharedReq misses (Count)
system.victimcache.ReadSharedReq.missLatency::cpu.data   1247911000                       # number of ReadSharedReq miss ticks (Tick)
system.victimcache.ReadSharedReq.missLatency::total   1247911000                       # number of ReadSharedReq miss ticks (Tick)
system.victimcache.ReadSharedReq.accesses::cpu.data        47409                       # number of ReadSharedReq accesses(hits+misses) (Count)
system.victimcache.ReadSharedReq.accesses::total        47409                       # number of ReadSharedReq accesses(hits+misses) (Count)
system.victimcache.ReadSharedReq.missRate::cpu.data     0.676264                       # miss rate for ReadSharedReq accesses (Ratio)
system.victimcache.ReadSharedReq.missRate::total     0.676264                       # miss rate for ReadSharedReq accesses (Ratio)
system.victimcache.ReadSharedReq.avgMissLatency::cpu.data 38923.021740                       # average ReadSharedReq miss latency ((Tick/Count))
system.victimcache.ReadSharedReq.avgMissLatency::total 38923.021740                       # average ReadSharedReq miss latency ((Tick/Count))
system.victimcache.ReadSharedReq.mshrMisses::cpu.data        32061                       # number of ReadSharedReq MSHR misses (Count)
system.victimcache.ReadSharedReq.mshrMisses::total        32061                       # number of ReadSharedReq MSHR misses (Count)
system.victimcache.ReadSharedReq.mshrMissLatency::cpu.data   1247911000                       # number of ReadSharedReq MSHR miss ticks (Tick)
system.victimcache.ReadSharedReq.mshrMissLatency::total   1247911000                       # number of ReadSharedReq MSHR miss ticks (Tick)
system.victimcache.ReadSharedReq.mshrMissRate::cpu.data     0.676264                       # mshr miss rate for ReadSharedReq accesses (Ratio)
system.victimcache.ReadSharedReq.mshrMissRate::total     0.676264                       # mshr miss rate for ReadSharedReq accesses (Ratio)
system.victimcache.ReadSharedReq.avgMshrMissLatency::cpu.data 38923.021740                       # average ReadSharedReq mshr miss latency ((Tick/Count))
system.victimcache.ReadSharedReq.avgMshrMissLatency::total 38923.021740                       # average ReadSharedReq mshr miss latency ((Tick/Count))
system.victimcache.UpgradeReq.misses::cpu.data           36                       # number of UpgradeReq misses (Count)
system.victimcache.UpgradeReq.misses::total           36                       # number of UpgradeReq misses (Count)
system.victimcache.UpgradeReq.accesses::cpu.data           36                       # number of UpgradeReq accesses(hits+misses) (Count)
system.victimcache.UpgradeReq.accesses::total           36                       # number of UpgradeReq accesses(hits+misses) (Count)
system.victimcache.UpgradeReq.missRate::cpu.data            1                       # miss rate for UpgradeReq accesses (Ratio)
system.victimcache.UpgradeReq.missRate::total            1                       # miss rate for UpgradeReq accesses (Ratio)
system.victimcache.UpgradeReq.mshrMisses::cpu.data           36                       # number of UpgradeReq MSHR misses (Count)
system.victimcache.UpgradeReq.mshrMisses::total           36                       # number of UpgradeReq MSHR misses (Count)
system.victimcache.UpgradeReq.mshrMissLatency::cpu.data      1732000                       # number of UpgradeReq MSHR miss ticks (Tick)
system.victimcache.UpgradeReq.mshrMissLatency::total      1732000                       # number of UpgradeReq MSHR miss ticks (Tick)
system.victimcache.UpgradeReq.mshrMissRate::cpu.data            1                       # mshr miss rate for UpgradeReq accesses (Ratio)
system.victimcache.UpgradeReq.mshrMissRate::total            1                       # mshr miss rate for UpgradeReq accesses (Ratio)
system.victimcache.UpgradeReq.avgMshrMissLatency::cpu.data 48111.111111                       # average UpgradeReq mshr miss latency ((Tick/Count))
system.victimcache.UpgradeReq.avgMshrMissLatency::total 48111.111111                       # average UpgradeReq mshr miss latency ((Tick/Count))
system.victimcache.WritebackClean.hits::writebacks        47310                       # number of WritebackClean hits (Count)
system.victimcache.WritebackClean.hits::total        47310                       # number of WritebackClean hits (Count)
system.victimcache.WritebackClean.accesses::writebacks        47310                       # number of WritebackClean accesses(hits+misses) (Count)
system.victimcache.WritebackClean.accesses::total        47310                       # number of WritebackClean accesses(hits+misses) (Count)
system.victimcache.WritebackDirty.hits::writebacks           94                       # number of WritebackDirty hits (Count)
system.victimcache.WritebackDirty.hits::total           94                       # number of WritebackDirty hits (Count)
system.victimcache.WritebackDirty.accesses::writebacks           94                       # number of WritebackDirty accesses(hits+misses) (Count)
system.victimcache.WritebackDirty.accesses::total           94                       # number of WritebackDirty accesses(hits+misses) (Count)
system.victimcache.power_state.pwrStateResidencyTicks::UNDEFINED    421874000                       # Cumulative time (in ticks) in various power states (Tick)
system.victimcache.tags.tagsInUse            1.857220                       # Average ticks per tags in use ((Tick/Count))
system.victimcache.tags.totalRefs               62752                       # Total number of references to valid blocks. (Count)
system.victimcache.tags.sampledRefs             47404                       # Sample count of references to valid blocks. (Count)
system.victimcache.tags.avgRefs              1.323770                       # Average number of references to valid blocks. ((Count/Count))
system.victimcache.tags.warmupTick           11178000                       # The tick when the warmup percentage was hit. (Tick)
system.victimcache.tags.occupancies::writebacks     1.857220                       # Average occupied blocks per tick, per requestor ((Count/Tick))
system.victimcache.tags.avgOccs::writebacks     0.928610                       # Average percentage of cache occupancy ((Ratio/Tick))
system.victimcache.tags.avgOccs::total       0.928610                       # Average percentage of cache occupancy ((Ratio/Tick))
system.victimcache.tags.occupanciesTaskId::1024            2                       # Occupied blocks per task id (Count)
system.victimcache.tags.ageTaskId_1024::0            2                       # Occupied blocks per task id, per block age (Count)
system.victimcache.tags.ratioOccsTaskId::1024            1                       # Ratio of occupied blocks and all blocks, per task id (Ratio)
system.victimcache.tags.tagAccesses            237344                       # Number of tag accesses (Count)
system.victimcache.tags.dataAccesses           237344                       # Number of data accesses (Count)
system.victimcache.tags.power_state.pwrStateResidencyTicks::UNDEFINED    421874000                       # Cumulative time (in ticks) in various power states (Tick)
system.workload.inst.arm                            0                       # number of arm instructions executed (Count)
system.workload.inst.quiesce                        0                       # number of quiesce instructions executed (Count)

---------- End Simulation Statistics   ----------
