
---------- Begin Simulation Statistics ----------
simSeconds                                   0.056550                       # Number of seconds simulated (Second)
simTicks                                  56549734000                       # Number of ticks simulated (Tick)
finalTick                                 56549734000                       # Number of ticks from beginning of simulation (restored from checkpoints and never reset) (Tick)
simFreq                                  1000000000000                       # The number of ticks per simulated second ((Tick/Second))
hostSeconds                                    275.98                       # Real time elapsed on the host (Second)
hostTickRate                                204903189                       # The number of ticks simulated per host second (ticks/s) ((Tick/Second))
hostMemory                                     704128                       # Number of bytes of host memory used (Byte)
simInsts                                     48413560                       # Number of instructions simulated (Count)
simOps                                       86500554                       # Number of ops (including micro ops) simulated (Count)
hostInstRate                                   175422                       # Simulator instruction rate (inst/s) ((Count/Second))
hostOpRate                                     313427                       # Simulator op (including micro ops) rate (op/s) ((Count/Second))
system.clk_domain.clock                          1000                       # Clock period in ticks (Tick)
system.clk_domain.voltage_domain.voltage            1                       # Voltage in Volts (Volt)
system.cpu.numCycles                         56549735                       # Number of cpu cycles simulated (Cycle)
system.cpu.numWorkItemsStarted                      0                       # Number of work items this cpu started (Count)
system.cpu.numWorkItemsCompleted                    0                       # Number of work items this cpu completed (Count)
system.cpu.instsAdded                        97766106                       # Number of instructions added to the IQ (excludes non-spec) (Count)
system.cpu.nonSpecInstsAdded                   917790                       # Number of non-speculative instructions added to the IQ (Count)
system.cpu.instsIssued                       95024070                       # Number of instructions issued (Count)
system.cpu.squashedInstsIssued                   8959                       # Number of squashed instructions issued (Count)
system.cpu.squashedInstsExamined             12183336                       # Number of squashed instructions iterated over during squash; mainly for profiling (Count)
system.cpu.squashedOperandsExamined          14428669                       # Number of squashed operands that are examined and possibly removed from graph (Count)
system.cpu.squashedNonSpecRemoved                 124                       # Number of squashed non-spec instructions that were removed (Count)
system.cpu.numIssuedDist::samples            56444393                       # Number of insts issued each cycle (Count)
system.cpu.numIssuedDist::mean               1.683499                       # Number of insts issued each cycle (Count)
system.cpu.numIssuedDist::stdev              2.035807                       # Number of insts issued each cycle (Count)
system.cpu.numIssuedDist::underflows                0      0.00%      0.00% # Number of insts issued each cycle (Count)
system.cpu.numIssuedDist::0                  24910530     44.13%     44.13% # Number of insts issued each cycle (Count)
system.cpu.numIssuedDist::1                   9533777     16.89%     61.02% # Number of insts issued each cycle (Count)
system.cpu.numIssuedDist::2                   5474488      9.70%     70.72% # Number of insts issued each cycle (Count)
system.cpu.numIssuedDist::3                   4773272      8.46%     79.18% # Number of insts issued each cycle (Count)
system.cpu.numIssuedDist::4                   3360996      5.95%     85.13% # Number of insts issued each cycle (Count)
system.cpu.numIssuedDist::5                   4817392      8.53%     93.67% # Number of insts issued each cycle (Count)
system.cpu.numIssuedDist::6                   2543804      4.51%     98.17% # Number of insts issued each cycle (Count)
system.cpu.numIssuedDist::7                    813339      1.44%     99.62% # Number of insts issued each cycle (Count)
system.cpu.numIssuedDist::8                    216795      0.38%    100.00% # Number of insts issued each cycle (Count)
system.cpu.numIssuedDist::overflows                 0      0.00%    100.00% # Number of insts issued each cycle (Count)
system.cpu.numIssuedDist::min_value                 0                       # Number of insts issued each cycle (Count)
system.cpu.numIssuedDist::max_value                 8                       # Number of insts issued each cycle (Count)
system.cpu.numIssuedDist::total              56444393                       # Number of insts issued each cycle (Count)
system.cpu.statFuBusy::No_OpClass                   0      0.00%      0.00% # attempts to use FU when none available (Count)
system.cpu.statFuBusy::IntAlu                   82491     25.29%     25.29% # attempts to use FU when none available (Count)
system.cpu.statFuBusy::IntMult                      0      0.00%     25.29% # attempts to use FU when none available (Count)
system.cpu.statFuBusy::IntDiv                       0      0.00%     25.29% # attempts to use FU when none available (Count)
system.cpu.statFuBusy::FloatAdd                     0      0.00%     25.29% # attempts to use FU when none available (Count)
system.cpu.statFuBusy::FloatCmp                     0      0.00%     25.29% # attempts to use FU when none available (Count)
system.cpu.statFuBusy::FloatCvt                     0      0.00%     25.29% # attempts to use FU when none available (Count)
system.cpu.statFuBusy::FloatMult                    0      0.00%     25.29% # attempts to use FU when none available (Count)
system.cpu.statFuBusy::FloatMultAcc                 0      0.00%     25.29% # attempts to use FU when none available (Count)
system.cpu.statFuBusy::FloatDiv                     0      0.00%     25.29% # attempts to use FU when none available (Count)
system.cpu.statFuBusy::FloatMisc                    0      0.00%     25.29% # attempts to use FU when none available (Count)
system.cpu.statFuBusy::FloatSqrt                    0      0.00%     25.29% # attempts to use FU when none available (Count)
system.cpu.statFuBusy::SimdAdd                      3      0.00%     25.29% # attempts to use FU when none available (Count)
system.cpu.statFuBusy::SimdAddAcc                   0      0.00%     25.29% # attempts to use FU when none available (Count)
system.cpu.statFuBusy::SimdAlu                     40      0.01%     25.30% # attempts to use FU when none available (Count)
system.cpu.statFuBusy::SimdCmp                      0      0.00%     25.30% # attempts to use FU when none available (Count)
system.cpu.statFuBusy::SimdCvt                   1011      0.31%     25.61% # attempts to use FU when none available (Count)
system.cpu.statFuBusy::SimdMisc                    12      0.00%     25.61% # attempts to use FU when none available (Count)
system.cpu.statFuBusy::SimdMult                     0      0.00%     25.61% # attempts to use FU when none available (Count)
system.cpu.statFuBusy::SimdMultAcc                  0      0.00%     25.61% # attempts to use FU when none available (Count)
system.cpu.statFuBusy::SimdShift                   12      0.00%     25.62% # attempts to use FU when none available (Count)
system.cpu.statFuBusy::SimdShiftAcc                 0      0.00%     25.62% # attempts to use FU when none available (Count)
system.cpu.statFuBusy::SimdDiv                      0      0.00%     25.62% # attempts to use FU when none available (Count)
system.cpu.statFuBusy::SimdSqrt                     0      0.00%     25.62% # attempts to use FU when none available (Count)
system.cpu.statFuBusy::SimdFloatAdd                 0      0.00%     25.62% # attempts to use FU when none available (Count)
system.cpu.statFuBusy::SimdFloatAlu                 0      0.00%     25.62% # attempts to use FU when none available (Count)
system.cpu.statFuBusy::SimdFloatCmp                 0      0.00%     25.62% # attempts to use FU when none available (Count)
system.cpu.statFuBusy::SimdFloatCvt                 0      0.00%     25.62% # attempts to use FU when none available (Count)
system.cpu.statFuBusy::SimdFloatDiv                 0      0.00%     25.62% # attempts to use FU when none available (Count)
system.cpu.statFuBusy::SimdFloatMisc                0      0.00%     25.62% # attempts to use FU when none available (Count)
system.cpu.statFuBusy::SimdFloatMult                0      0.00%     25.62% # attempts to use FU when none available (Count)
system.cpu.statFuBusy::SimdFloatMultAcc             0      0.00%     25.62% # attempts to use FU when none available (Count)
system.cpu.statFuBusy::SimdFloatSqrt                0      0.00%     25.62% # attempts to use FU when none available (Count)
system.cpu.statFuBusy::SimdReduceAdd                0      0.00%     25.62% # attempts to use FU when none available (Count)
system.cpu.statFuBusy::SimdReduceAlu                0      0.00%     25.62% # attempts to use FU when none available (Count)
system.cpu.statFuBusy::SimdReduceCmp                0      0.00%     25.62% # attempts to use FU when none available (Count)
system.cpu.statFuBusy::SimdFloatReduceAdd            0      0.00%     25.62% # attempts to use FU when none available (Count)
system.cpu.statFuBusy::SimdFloatReduceCmp            0      0.00%     25.62% # attempts to use FU when none available (Count)
system.cpu.statFuBusy::SimdAes                      0      0.00%     25.62% # attempts to use FU when none available (Count)
system.cpu.statFuBusy::SimdAesMix                   0      0.00%     25.62% # attempts to use FU when none available (Count)
system.cpu.statFuBusy::SimdSha1Hash                 0      0.00%     25.62% # attempts to use FU when none available (Count)
system.cpu.statFuBusy::SimdSha1Hash2                0      0.00%     25.62% # attempts to use FU when none available (Count)
system.cpu.statFuBusy::SimdSha256Hash               0      0.00%     25.62% # attempts to use FU when none available (Count)
system.cpu.statFuBusy::SimdSha256Hash2              0      0.00%     25.62% # attempts to use FU when none available (Count)
system.cpu.statFuBusy::SimdShaSigma2                0      0.00%     25.62% # attempts to use FU when none available (Count)
system.cpu.statFuBusy::SimdShaSigma3                0      0.00%     25.62% # attempts to use FU when none available (Count)
system.cpu.statFuBusy::SimdPredAlu                  0      0.00%     25.62% # attempts to use FU when none available (Count)
system.cpu.statFuBusy::MemRead                 169685     52.02%     77.63% # attempts to use FU when none available (Count)
system.cpu.statFuBusy::MemWrite                 72576     22.25%     99.88% # attempts to use FU when none available (Count)
system.cpu.statFuBusy::FloatMemRead               158      0.05%     99.93% # attempts to use FU when none available (Count)
system.cpu.statFuBusy::FloatMemWrite              226      0.07%    100.00% # attempts to use FU when none available (Count)
system.cpu.statFuBusy::IprAccess                    0      0.00%    100.00% # attempts to use FU when none available (Count)
system.cpu.statFuBusy::InstPrefetch                 0      0.00%    100.00% # attempts to use FU when none available (Count)
system.cpu.statIssuedInstType_0::No_OpClass      1595095      1.68%      1.68% # Number of instructions issued per FU type, per thread (Count)
system.cpu.statIssuedInstType_0::IntAlu      55127643     58.01%     59.69% # Number of instructions issued per FU type, per thread (Count)
system.cpu.statIssuedInstType_0::IntMult         1932      0.00%     59.70% # Number of instructions issued per FU type, per thread (Count)
system.cpu.statIssuedInstType_0::IntDiv         37392      0.04%     59.73% # Number of instructions issued per FU type, per thread (Count)
system.cpu.statIssuedInstType_0::FloatAdd      2104444      2.21%     61.95% # Number of instructions issued per FU type, per thread (Count)
system.cpu.statIssuedInstType_0::FloatCmp            0      0.00%     61.95% # Number of instructions issued per FU type, per thread (Count)
system.cpu.statIssuedInstType_0::FloatCvt       262442      0.28%     62.23% # Number of instructions issued per FU type, per thread (Count)
system.cpu.statIssuedInstType_0::FloatMult       262144      0.28%     62.50% # Number of instructions issued per FU type, per thread (Count)
system.cpu.statIssuedInstType_0::FloatMultAcc            0      0.00%     62.50% # Number of instructions issued per FU type, per thread (Count)
system.cpu.statIssuedInstType_0::FloatDiv            0      0.00%     62.50% # Number of instructions issued per FU type, per thread (Count)
system.cpu.statIssuedInstType_0::FloatMisc            0      0.00%     62.50% # Number of instructions issued per FU type, per thread (Count)
system.cpu.statIssuedInstType_0::FloatSqrt            0      0.00%     62.50% # Number of instructions issued per FU type, per thread (Count)
system.cpu.statIssuedInstType_0::SimdAdd         7064      0.01%     62.51% # Number of instructions issued per FU type, per thread (Count)
system.cpu.statIssuedInstType_0::SimdAddAcc            0      0.00%     62.51% # Number of instructions issued per FU type, per thread (Count)
system.cpu.statIssuedInstType_0::SimdAlu       275491      0.29%     62.80% # Number of instructions issued per FU type, per thread (Count)
system.cpu.statIssuedInstType_0::SimdCmp            0      0.00%     62.80% # Number of instructions issued per FU type, per thread (Count)
system.cpu.statIssuedInstType_0::SimdCvt        14946      0.02%     62.81% # Number of instructions issued per FU type, per thread (Count)
system.cpu.statIssuedInstType_0::SimdMisc       406492      0.43%     63.24% # Number of instructions issued per FU type, per thread (Count)
system.cpu.statIssuedInstType_0::SimdMult            0      0.00%     63.24% # Number of instructions issued per FU type, per thread (Count)
system.cpu.statIssuedInstType_0::SimdMultAcc            0      0.00%     63.24% # Number of instructions issued per FU type, per thread (Count)
system.cpu.statIssuedInstType_0::SimdShift         1061      0.00%     63.24% # Number of instructions issued per FU type, per thread (Count)
system.cpu.statIssuedInstType_0::SimdShiftAcc            0      0.00%     63.24% # Number of instructions issued per FU type, per thread (Count)
system.cpu.statIssuedInstType_0::SimdDiv            0      0.00%     63.24% # Number of instructions issued per FU type, per thread (Count)
system.cpu.statIssuedInstType_0::SimdSqrt            0      0.00%     63.24% # Number of instructions issued per FU type, per thread (Count)
system.cpu.statIssuedInstType_0::SimdFloatAdd       655369      0.69%     63.93% # Number of instructions issued per FU type, per thread (Count)
system.cpu.statIssuedInstType_0::SimdFloatAlu            0      0.00%     63.93% # Number of instructions issued per FU type, per thread (Count)
system.cpu.statIssuedInstType_0::SimdFloatCmp            0      0.00%     63.93% # Number of instructions issued per FU type, per thread (Count)
system.cpu.statIssuedInstType_0::SimdFloatCvt       393270      0.41%     64.35% # Number of instructions issued per FU type, per thread (Count)
system.cpu.statIssuedInstType_0::SimdFloatDiv       131078      0.14%     64.48% # Number of instructions issued per FU type, per thread (Count)
system.cpu.statIssuedInstType_0::SimdFloatMisc            0      0.00%     64.48% # Number of instructions issued per FU type, per thread (Count)
system.cpu.statIssuedInstType_0::SimdFloatMult       458757      0.48%     64.97% # Number of instructions issued per FU type, per thread (Count)
system.cpu.statIssuedInstType_0::SimdFloatMultAcc            0      0.00%     64.97% # Number of instructions issued per FU type, per thread (Count)
system.cpu.statIssuedInstType_0::SimdFloatSqrt            0      0.00%     64.97% # Number of instructions issued per FU type, per thread (Count)
system.cpu.statIssuedInstType_0::SimdReduceAdd            0      0.00%     64.97% # Number of instructions issued per FU type, per thread (Count)
system.cpu.statIssuedInstType_0::SimdReduceAlu            0      0.00%     64.97% # Number of instructions issued per FU type, per thread (Count)
system.cpu.statIssuedInstType_0::SimdReduceCmp            0      0.00%     64.97% # Number of instructions issued per FU type, per thread (Count)
system.cpu.statIssuedInstType_0::SimdFloatReduceAdd            0      0.00%     64.97% # Number of instructions issued per FU type, per thread (Count)
system.cpu.statIssuedInstType_0::SimdFloatReduceCmp            0      0.00%     64.97% # Number of instructions issued per FU type, per thread (Count)
system.cpu.statIssuedInstType_0::SimdAes            0      0.00%     64.97% # Number of instructions issued per FU type, per thread (Count)
system.cpu.statIssuedInstType_0::SimdAesMix            0      0.00%     64.97% # Number of instructions issued per FU type, per thread (Count)
system.cpu.statIssuedInstType_0::SimdSha1Hash            0      0.00%     64.97% # Number of instructions issued per FU type, per thread (Count)
system.cpu.statIssuedInstType_0::SimdSha1Hash2            0      0.00%     64.97% # Number of instructions issued per FU type, per thread (Count)
system.cpu.statIssuedInstType_0::SimdSha256Hash            0      0.00%     64.97% # Number of instructions issued per FU type, per thread (Count)
system.cpu.statIssuedInstType_0::SimdSha256Hash2            0      0.00%     64.97% # Number of instructions issued per FU type, per thread (Count)
system.cpu.statIssuedInstType_0::SimdShaSigma2            0      0.00%     64.97% # Number of instructions issued per FU type, per thread (Count)
system.cpu.statIssuedInstType_0::SimdShaSigma3            0      0.00%     64.97% # Number of instructions issued per FU type, per thread (Count)
system.cpu.statIssuedInstType_0::SimdPredAlu            0      0.00%     64.97% # Number of instructions issued per FU type, per thread (Count)
system.cpu.statIssuedInstType_0::MemRead     19404543     20.42%     85.39% # Number of instructions issued per FU type, per thread (Count)
system.cpu.statIssuedInstType_0::MemWrite      9724433     10.23%     95.62% # Number of instructions issued per FU type, per thread (Count)
system.cpu.statIssuedInstType_0::FloatMemRead      2706177      2.85%     98.47% # Number of instructions issued per FU type, per thread (Count)
system.cpu.statIssuedInstType_0::FloatMemWrite      1454297      1.53%    100.00% # Number of instructions issued per FU type, per thread (Count)
system.cpu.statIssuedInstType_0::IprAccess            0      0.00%    100.00% # Number of instructions issued per FU type, per thread (Count)
system.cpu.statIssuedInstType_0::InstPrefetch            0      0.00%    100.00% # Number of instructions issued per FU type, per thread (Count)
system.cpu.statIssuedInstType_0::total       95024070                       # Number of instructions issued per FU type, per thread (Count)
system.cpu.issueRate                         1.680363                       # Inst issue rate ((Count/Cycle))
system.cpu.fuBusy                              326214                       # FU busy when requested (Count)
system.cpu.fuBusyRate                        0.003433                       # FU busy rate (busy events/executed inst) ((Count/Count))
system.cpu.intInstQueueReads                226193971                       # Number of integer instruction queue reads (Count)
system.cpu.intInstQueueWrites               100512477                       # Number of integer instruction queue writes (Count)
system.cpu.intInstQueueWakeupAccesses        84038237                       # Number of integer instruction queue wakeup accesses (Count)
system.cpu.fpInstQueueReads                  20633735                       # Number of floating instruction queue reads (Count)
system.cpu.fpInstQueueWrites                 10357771                       # Number of floating instruction queue writes (Count)
system.cpu.fpInstQueueWakeupAccesses         10313072                       # Number of floating instruction queue wakeup accesses (Count)
system.cpu.vecInstQueueReads                        0                       # Number of vector instruction queue reads (Count)
system.cpu.vecInstQueueWrites                       0                       # Number of vector instruction queue writes (Count)
system.cpu.vecInstQueueWakeupAccesses               0                       # Number of vector instruction queue wakeup accesses (Count)
system.cpu.intAluAccesses                    83437649                       # Number of integer alu accesses (Count)
system.cpu.fpAluAccesses                     10317540                       # Number of floating point alu accesses (Count)
system.cpu.vecAluAccesses                           0                       # Number of vector alu accesses (Count)
system.cpu.idleCycles                               0                       # Number of cycles IEW is idle (Cycle)
system.cpu.squashCycles                        149899                       # Number of cycles IEW is squashing (Cycle)
system.cpu.blockCycles                        1897325                       # Number of cycles IEW is blocking (Cycle)
system.cpu.unblockCycles                        24306                       # Number of cycles IEW is unblocking (Cycle)
system.cpu.dispatchedInsts                   98683896                       # Number of instructions dispatched to IQ (Count)
system.cpu.dispSquashedInsts                      563                       # Number of squashed instructions skipped by dispatch (Count)
system.cpu.dispLoadInsts                     22846682                       # Number of dispatched load instructions (Count)
system.cpu.dispStoreInsts                    11538661                       # Number of dispatched store instructions (Count)
system.cpu.dispNonSpecInsts                    917788                       # Number of dispatched non-speculative instructions (Count)
system.cpu.iqFullEvents                          9431                       # Number of times the IQ has become full, causing a stall (Count)
system.cpu.lsqFullEvents                        11286                       # Number of times the LSQ has become full, causing a stall (Count)
system.cpu.memOrderViolationEvents               3109                       # Number of memory order violations (Count)
system.cpu.predictedTakenIncorrect              72673                       # Number of branches that were predicted taken incorrectly (Count)
system.cpu.predictedNotTakenIncorrect           76037                       # Number of branches that were predicted not taken incorrectly (Count)
system.cpu.branchMispredicts                   148710                       # Number of branch mispredicts detected at execute (Count)
system.cpu.numInsts                          94585325                       # Number of executed instructions (Count)
system.cpu.numLoadInsts                      22011864                       # Number of load instructions executed (Count)
system.cpu.numSquashedInsts                    438745                       # Number of squashed instructions skipped in execute (Count)
system.cpu.numSwp                                   0                       # Number of swp insts executed (Count)
system.cpu.numNop                                   0                       # Number of nop insts executed (Count)
system.cpu.numRefs                           33052971                       # Number of memory reference insts executed (Count)
system.cpu.numBranches                        7110530                       # Number of branches executed (Count)
system.cpu.numStoreInsts                     11041107                       # Number of stores executed (Count)
system.cpu.numRate                           1.672604                       # Inst execution rate ((Count/Cycle))
system.cpu.instsToCommit                     94475977                       # Cumulative count of insts sent to commit (Count)
system.cpu.writebackCount                    94351309                       # Cumulative count of insts written-back (Count)
system.cpu.producerInst                      67984757                       # Number of instructions producing a value (Count)
system.cpu.consumerInst                     110539314                       # Number of instructions consuming a value (Count)
system.cpu.wbRate                            1.668466                       # Insts written-back per cycle ((Count/Cycle))
system.cpu.wbFanout                          0.615028                       # Average fanout of values written-back ((Count/Count))
system.cpu.timesIdled                            1527                       # Number of times that the entire CPU went into an idle state and unscheduled itself (Count)
system.cpu.idleCycles                          105342                       # Total number of cycles that the CPU has spent unscheduled due to idling (Cycle)
system.cpu.committedInsts                    48413560                       # Number of Instructions Simulated (Count)
system.cpu.committedOps                      86500554                       # Number of Ops (including micro ops) Simulated (Count)
system.cpu.cpi                               1.168056                       # CPI: Cycles Per Instruction ((Cycle/Count))
system.cpu.totalCpi                          1.168056                       # CPI: Total CPI of All Threads ((Cycle/Count))
system.cpu.ipc                               0.856124                       # IPC: Instructions Per Cycle ((Count/Cycle))
system.cpu.totalIpc                          0.856124                       # IPC: Total IPC of All Threads ((Count/Cycle))
system.cpu.intRegfileReads                  147721028                       # Number of integer regfile reads (Count)
system.cpu.intRegfileWrites                  65812438                       # Number of integer regfile writes (Count)
system.cpu.fpRegfileReads                    10154515                       # Number of floating regfile reads (Count)
system.cpu.fpRegfileWrites                    8327724                       # Number of floating regfile writes (Count)
system.cpu.ccRegfileReads                    19821956                       # number of cc regfile reads (Count)
system.cpu.ccRegfileWrites                   20166707                       # number of cc regfile writes (Count)
system.cpu.miscRegfileReads                  48460198                       # number of misc regfile reads (Count)
system.cpu.miscRegfileWrites                  1835170                       # number of misc regfile writes (Count)
system.cpu.MemDepUnit__0.insertedLoads       22846682                       # Number of loads inserted to the mem dependence unit. (Count)
system.cpu.MemDepUnit__0.insertedStores      11538661                       # Number of stores inserted to the mem dependence unit. (Count)
system.cpu.MemDepUnit__0.conflictingLoads      9782187                       # Number of conflicting loads. (Count)
system.cpu.MemDepUnit__0.conflictingStores      2197754                       # Number of conflicting stores. (Count)
system.cpu.MemDepUnit__1.insertedLoads              0                       # Number of loads inserted to the mem dependence unit. (Count)
system.cpu.MemDepUnit__1.insertedStores             0                       # Number of stores inserted to the mem dependence unit. (Count)
system.cpu.MemDepUnit__1.conflictingLoads            0                       # Number of conflicting loads. (Count)
system.cpu.MemDepUnit__1.conflictingStores            0                       # Number of conflicting stores. (Count)
system.cpu.MemDepUnit__2.insertedLoads              0                       # Number of loads inserted to the mem dependence unit. (Count)
system.cpu.MemDepUnit__2.insertedStores             0                       # Number of stores inserted to the mem dependence unit. (Count)
system.cpu.MemDepUnit__2.conflictingLoads            0                       # Number of conflicting loads. (Count)
system.cpu.MemDepUnit__2.conflictingStores            0                       # Number of conflicting stores. (Count)
system.cpu.MemDepUnit__3.insertedLoads              0                       # Number of loads inserted to the mem dependence unit. (Count)
system.cpu.MemDepUnit__3.insertedStores             0                       # Number of stores inserted to the mem dependence unit. (Count)
system.cpu.MemDepUnit__3.conflictingLoads            0                       # Number of conflicting loads. (Count)
system.cpu.MemDepUnit__3.conflictingStores            0                       # Number of conflicting stores. (Count)
system.cpu.branchPred.lookups                 7655527                       # Number of BP lookups (Count)
system.cpu.branchPred.condPredicted           2832659                       # Number of conditional branches predicted (Count)
system.cpu.branchPred.condIncorrect            146494                       # Number of conditional branches incorrect (Count)
system.cpu.branchPred.BTBLookups              4338627                       # Number of BTB lookups (Count)
system.cpu.branchPred.BTBHits                 4335885                       # Number of BTB hits (Count)
system.cpu.branchPred.BTBHitRatio            0.999368                       # BTB Hit Ratio (Ratio)
system.cpu.branchPred.RASUsed                 1592437                       # Number of times the RAS was used to get a target. (Count)
system.cpu.branchPred.RASIncorrect                  9                       # Number of incorrect RAS predictions. (Count)
system.cpu.branchPred.indirectLookups            6163                       # Number of indirect predictor lookups. (Count)
system.cpu.branchPred.indirectHits               4021                       # Number of indirect target hits. (Count)
system.cpu.branchPred.indirectMisses             2142                       # Number of indirect misses. (Count)
system.cpu.branchPred.indirectMispredicted          624                       # Number of mispredicted indirect branches. (Count)
system.cpu.commit.commitSquashedInsts        12179742                       # The number of squashed insts skipped by commit (Count)
system.cpu.commit.commitNonSpecStalls          917666                       # The number of times commit has been forced to stall to communicate backwards (Count)
system.cpu.commit.branchMispredicts            146525                       # The number of times a branch was mispredicted (Count)
system.cpu.commit.numCommittedDist::samples     54855955                       # Number of insts commited each cycle (Count)
system.cpu.commit.numCommittedDist::mean     1.576867                       # Number of insts commited each cycle (Count)
system.cpu.commit.numCommittedDist::stdev     2.392963                       # Number of insts commited each cycle (Count)
system.cpu.commit.numCommittedDist::underflows            0      0.00%      0.00% # Number of insts commited each cycle (Count)
system.cpu.commit.numCommittedDist::0        26669955     48.62%     48.62% # Number of insts commited each cycle (Count)
system.cpu.commit.numCommittedDist::1        11986683     21.85%     70.47% # Number of insts commited each cycle (Count)
system.cpu.commit.numCommittedDist::2         4424232      8.07%     78.53% # Number of insts commited each cycle (Count)
system.cpu.commit.numCommittedDist::3         3712055      6.77%     85.30% # Number of insts commited each cycle (Count)
system.cpu.commit.numCommittedDist::4         1017543      1.85%     87.16% # Number of insts commited each cycle (Count)
system.cpu.commit.numCommittedDist::5         1301364      2.37%     89.53% # Number of insts commited each cycle (Count)
system.cpu.commit.numCommittedDist::6          500128      0.91%     90.44% # Number of insts commited each cycle (Count)
system.cpu.commit.numCommittedDist::7         1000478      1.82%     92.26% # Number of insts commited each cycle (Count)
system.cpu.commit.numCommittedDist::8         4243517      7.74%    100.00% # Number of insts commited each cycle (Count)
system.cpu.commit.numCommittedDist::overflows            0      0.00%    100.00% # Number of insts commited each cycle (Count)
system.cpu.commit.numCommittedDist::min_value            0                       # Number of insts commited each cycle (Count)
system.cpu.commit.numCommittedDist::max_value            8                       # Number of insts commited each cycle (Count)
system.cpu.commit.numCommittedDist::total     54855955                       # Number of insts commited each cycle (Count)
system.cpu.commit.instsCommitted             48413560                       # Number of instructions committed (Count)
system.cpu.commit.opsCommitted               86500554                       # Number of ops (including micro ops) committed (Count)
system.cpu.commit.memRefs                    30064843                       # Number of memory references committed (Count)
system.cpu.commit.loads                      19316000                       # Number of loads committed (Count)
system.cpu.commit.amos                              0                       # Number of atomic instructions committed (Count)
system.cpu.commit.membars                           0                       # Number of memory barriers committed (Count)
system.cpu.commit.branches                    6508446                       # Number of branches committed (Count)
system.cpu.commit.vectorInstructions                0                       # Number of committed Vector instructions. (Count)
system.cpu.commit.floating                   10299427                       # Number of committed floating point instructions. (Count)
system.cpu.commit.integer                    79289823                       # Number of committed integer instructions. (Count)
system.cpu.commit.functionCalls               1585658                       # Number of function calls committed. (Count)
system.cpu.commit.committedInstType_0::No_OpClass      1587379      1.84%      1.84% # Class of committed instruction (Count)
system.cpu.commit.committedInstType_0::IntAlu     49848165     57.63%     59.46% # Class of committed instruction (Count)
system.cpu.commit.committedInstType_0::IntMult         1915      0.00%     59.46% # Class of committed instruction (Count)
system.cpu.commit.committedInstType_0::IntDiv        35091      0.04%     59.51% # Class of committed instruction (Count)
system.cpu.commit.committedInstType_0::FloatAdd      2102037      2.43%     61.94% # Class of committed instruction (Count)
system.cpu.commit.committedInstType_0::FloatCmp            0      0.00%     61.94% # Class of committed instruction (Count)
system.cpu.commit.committedInstType_0::FloatCvt       262432      0.30%     62.24% # Class of committed instruction (Count)
system.cpu.commit.committedInstType_0::FloatMult       262144      0.30%     62.54% # Class of committed instruction (Count)
system.cpu.commit.committedInstType_0::FloatMultAcc            0      0.00%     62.54% # Class of committed instruction (Count)
system.cpu.commit.committedInstType_0::FloatDiv            0      0.00%     62.54% # Class of committed instruction (Count)
system.cpu.commit.committedInstType_0::FloatMisc            0      0.00%     62.54% # Class of committed instruction (Count)
system.cpu.commit.committedInstType_0::FloatSqrt            0      0.00%     62.54% # Class of committed instruction (Count)
system.cpu.commit.committedInstType_0::SimdAdd         6484      0.01%     62.55% # Class of committed instruction (Count)
system.cpu.commit.committedInstType_0::SimdAddAcc            0      0.00%     62.55% # Class of committed instruction (Count)
system.cpu.commit.committedInstType_0::SimdAlu       273297      0.32%     62.87% # Class of committed instruction (Count)
system.cpu.commit.committedInstType_0::SimdCmp            0      0.00%     62.87% # Class of committed instruction (Count)
system.cpu.commit.committedInstType_0::SimdCvt        13148      0.02%     62.88% # Class of committed instruction (Count)
system.cpu.commit.committedInstType_0::SimdMisc       404764      0.47%     63.35% # Class of committed instruction (Count)
system.cpu.commit.committedInstType_0::SimdMult            0      0.00%     63.35% # Class of committed instruction (Count)
system.cpu.commit.committedInstType_0::SimdMultAcc            0      0.00%     63.35% # Class of committed instruction (Count)
system.cpu.commit.committedInstType_0::SimdShift          453      0.00%     63.35% # Class of committed instruction (Count)
system.cpu.commit.committedInstType_0::SimdShiftAcc            0      0.00%     63.35% # Class of committed instruction (Count)
system.cpu.commit.committedInstType_0::SimdDiv            0      0.00%     63.35% # Class of committed instruction (Count)
system.cpu.commit.committedInstType_0::SimdSqrt            0      0.00%     63.35% # Class of committed instruction (Count)
system.cpu.commit.committedInstType_0::SimdFloatAdd       655360      0.76%     64.11% # Class of committed instruction (Count)
system.cpu.commit.committedInstType_0::SimdFloatAlu            0      0.00%     64.11% # Class of committed instruction (Count)
system.cpu.commit.committedInstType_0::SimdFloatCmp            0      0.00%     64.11% # Class of committed instruction (Count)
system.cpu.commit.committedInstType_0::SimdFloatCvt       393218      0.45%     64.56% # Class of committed instruction (Count)
system.cpu.commit.committedInstType_0::SimdFloatDiv       131072      0.15%     64.71% # Class of committed instruction (Count)
system.cpu.commit.committedInstType_0::SimdFloatMisc            0      0.00%     64.71% # Class of committed instruction (Count)
system.cpu.commit.committedInstType_0::SimdFloatMult       458752      0.53%     65.24% # Class of committed instruction (Count)
system.cpu.commit.committedInstType_0::SimdFloatMultAcc            0      0.00%     65.24% # Class of committed instruction (Count)
system.cpu.commit.committedInstType_0::SimdFloatSqrt            0      0.00%     65.24% # Class of committed instruction (Count)
system.cpu.commit.committedInstType_0::SimdReduceAdd            0      0.00%     65.24% # Class of committed instruction (Count)
system.cpu.commit.committedInstType_0::SimdReduceAlu            0      0.00%     65.24% # Class of committed instruction (Count)
system.cpu.commit.committedInstType_0::SimdReduceCmp            0      0.00%     65.24% # Class of committed instruction (Count)
system.cpu.commit.committedInstType_0::SimdFloatReduceAdd            0      0.00%     65.24% # Class of committed instruction (Count)
system.cpu.commit.committedInstType_0::SimdFloatReduceCmp            0      0.00%     65.24% # Class of committed instruction (Count)
system.cpu.commit.committedInstType_0::SimdAes            0      0.00%     65.24% # Class of committed instruction (Count)
system.cpu.commit.committedInstType_0::SimdAesMix            0      0.00%     65.24% # Class of committed instruction (Count)
system.cpu.commit.committedInstType_0::SimdSha1Hash            0      0.00%     65.24% # Class of committed instruction (Count)
system.cpu.commit.committedInstType_0::SimdSha1Hash2            0      0.00%     65.24% # Class of committed instruction (Count)
system.cpu.commit.committedInstType_0::SimdSha256Hash            0      0.00%     65.24% # Class of committed instruction (Count)
system.cpu.commit.committedInstType_0::SimdSha256Hash2            0      0.00%     65.24% # Class of committed instruction (Count)
system.cpu.commit.committedInstType_0::SimdShaSigma2            0      0.00%     65.24% # Class of committed instruction (Count)
system.cpu.commit.committedInstType_0::SimdShaSigma3            0      0.00%     65.24% # Class of committed instruction (Count)
system.cpu.commit.committedInstType_0::SimdPredAlu            0      0.00%     65.24% # Class of committed instruction (Count)
system.cpu.commit.committedInstType_0::MemRead     16614797     19.21%     84.45% # Class of committed instruction (Count)
system.cpu.commit.committedInstType_0::MemWrite      9295993     10.75%     95.20% # Class of committed instruction (Count)
system.cpu.commit.committedInstType_0::FloatMemRead      2701203      3.12%     98.32% # Class of committed instruction (Count)
system.cpu.commit.committedInstType_0::FloatMemWrite      1452850      1.68%    100.00% # Class of committed instruction (Count)
system.cpu.commit.committedInstType_0::IprAccess            0      0.00%    100.00% # Class of committed instruction (Count)
system.cpu.commit.committedInstType_0::InstPrefetch            0      0.00%    100.00% # Class of committed instruction (Count)
system.cpu.commit.committedInstType_0::total     86500554                       # Class of committed instruction (Count)
system.cpu.commit.commitEligibleSamples       4243517                       # number cycles where commit BW limit reached (Cycle)
system.cpu.dcache.demandHits::cpu.data       21144877                       # number of demand (read+write) hits (Count)
system.cpu.dcache.demandHits::total          21144877                       # number of demand (read+write) hits (Count)
system.cpu.dcache.overallHits::cpu.data      21144877                       # number of overall hits (Count)
system.cpu.dcache.overallHits::total         21144877                       # number of overall hits (Count)
system.cpu.dcache.demandMisses::cpu.data       196802                       # number of demand (read+write) misses (Count)
system.cpu.dcache.demandMisses::total          196802                       # number of demand (read+write) misses (Count)
system.cpu.dcache.overallMisses::cpu.data       196802                       # number of overall misses (Count)
system.cpu.dcache.overallMisses::total         196802                       # number of overall misses (Count)
system.cpu.dcache.demandMissLatency::cpu.data  20156693992                       # number of demand (read+write) miss ticks (Tick)
system.cpu.dcache.demandMissLatency::total  20156693992                       # number of demand (read+write) miss ticks (Tick)
system.cpu.dcache.overallMissLatency::cpu.data  20156693992                       # number of overall miss ticks (Tick)
system.cpu.dcache.overallMissLatency::total  20156693992                       # number of overall miss ticks (Tick)
system.cpu.dcache.demandAccesses::cpu.data     21341679                       # number of demand (read+write) accesses (Count)
system.cpu.dcache.demandAccesses::total      21341679                       # number of demand (read+write) accesses (Count)
system.cpu.dcache.overallAccesses::cpu.data     21341679                       # number of overall (read+write) accesses (Count)
system.cpu.dcache.overallAccesses::total     21341679                       # number of overall (read+write) accesses (Count)
system.cpu.dcache.demandMissRate::cpu.data     0.009221                       # miss rate for demand accesses (Ratio)
system.cpu.dcache.demandMissRate::total      0.009221                       # miss rate for demand accesses (Ratio)
system.cpu.dcache.overallMissRate::cpu.data     0.009221                       # miss rate for overall accesses (Ratio)
system.cpu.dcache.overallMissRate::total     0.009221                       # miss rate for overall accesses (Ratio)
system.cpu.dcache.demandAvgMissLatency::cpu.data 102421.184703                       # average overall miss latency ((Cycle/Count))
system.cpu.dcache.demandAvgMissLatency::total 102421.184703                       # average overall miss latency ((Cycle/Count))
system.cpu.dcache.overallAvgMissLatency::cpu.data 102421.184703                       # average overall miss latency ((Cycle/Count))
system.cpu.dcache.overallAvgMissLatency::total 102421.184703                       # average overall miss latency ((Cycle/Count))
system.cpu.dcache.blockedCycles::no_mshrs        21268                       # number of cycles access was blocked (Cycle)
system.cpu.dcache.blockedCycles::no_targets          158                       # number of cycles access was blocked (Cycle)
system.cpu.dcache.blockedCauses::no_mshrs          645                       # number of times access was blocked (Count)
system.cpu.dcache.blockedCauses::no_targets            2                       # number of times access was blocked (Count)
system.cpu.dcache.avgBlocked::no_mshrs      32.973643                       # average number of cycles each access was blocked ((Cycle/Count))
system.cpu.dcache.avgBlocked::no_targets           79                       # average number of cycles each access was blocked ((Cycle/Count))
system.cpu.dcache.writebacks::writebacks        59577                       # number of writebacks (Count)
system.cpu.dcache.writebacks::total             59577                       # number of writebacks (Count)
system.cpu.dcache.demandMshrHits::cpu.data       126516                       # number of demand (read+write) MSHR hits (Count)
system.cpu.dcache.demandMshrHits::total        126516                       # number of demand (read+write) MSHR hits (Count)
system.cpu.dcache.overallMshrHits::cpu.data       126516                       # number of overall MSHR hits (Count)
system.cpu.dcache.overallMshrHits::total       126516                       # number of overall MSHR hits (Count)
system.cpu.dcache.demandMshrMisses::cpu.data        70286                       # number of demand (read+write) MSHR misses (Count)
system.cpu.dcache.demandMshrMisses::total        70286                       # number of demand (read+write) MSHR misses (Count)
system.cpu.dcache.overallMshrMisses::cpu.data        70286                       # number of overall MSHR misses (Count)
system.cpu.dcache.overallMshrMisses::total        70286                       # number of overall MSHR misses (Count)
system.cpu.dcache.demandMshrMissLatency::cpu.data   7412456004                       # number of demand (read+write) MSHR miss ticks (Tick)
system.cpu.dcache.demandMshrMissLatency::total   7412456004                       # number of demand (read+write) MSHR miss ticks (Tick)
system.cpu.dcache.overallMshrMissLatency::cpu.data   7412456004                       # number of overall MSHR miss ticks (Tick)
system.cpu.dcache.overallMshrMissLatency::total   7412456004                       # number of overall MSHR miss ticks (Tick)
system.cpu.dcache.demandMshrMissRate::cpu.data     0.003293                       # mshr miss ratio for demand accesses (Ratio)
system.cpu.dcache.demandMshrMissRate::total     0.003293                       # mshr miss ratio for demand accesses (Ratio)
system.cpu.dcache.overallMshrMissRate::cpu.data     0.003293                       # mshr miss ratio for overall accesses (Ratio)
system.cpu.dcache.overallMshrMissRate::total     0.003293                       # mshr miss ratio for overall accesses (Ratio)
system.cpu.dcache.demandAvgMshrMissLatency::cpu.data 105461.343710                       # average overall mshr miss latency ((Cycle/Count))
system.cpu.dcache.demandAvgMshrMissLatency::total 105461.343710                       # average overall mshr miss latency ((Cycle/Count))
system.cpu.dcache.overallAvgMshrMissLatency::cpu.data 105461.343710                       # average overall mshr miss latency ((Cycle/Count))
system.cpu.dcache.overallAvgMshrMissLatency::total 105461.343710                       # average overall mshr miss latency ((Cycle/Count))
system.cpu.dcache.replacements                  59545                       # number of replacements (Count)
system.cpu.dcache.ReadReq.hits::cpu.data     10427123                       # number of ReadReq hits (Count)
system.cpu.dcache.ReadReq.hits::total        10427123                       # number of ReadReq hits (Count)
system.cpu.dcache.ReadReq.misses::cpu.data       165710                       # number of ReadReq misses (Count)
system.cpu.dcache.ReadReq.misses::total        165710                       # number of ReadReq misses (Count)
system.cpu.dcache.ReadReq.missLatency::cpu.data  17309684000                       # number of ReadReq miss ticks (Tick)
system.cpu.dcache.ReadReq.missLatency::total  17309684000                       # number of ReadReq miss ticks (Tick)
system.cpu.dcache.ReadReq.accesses::cpu.data     10592833                       # number of ReadReq accesses(hits+misses) (Count)
system.cpu.dcache.ReadReq.accesses::total     10592833                       # number of ReadReq accesses(hits+misses) (Count)
system.cpu.dcache.ReadReq.missRate::cpu.data     0.015644                       # miss rate for ReadReq accesses (Ratio)
system.cpu.dcache.ReadReq.missRate::total     0.015644                       # miss rate for ReadReq accesses (Ratio)
system.cpu.dcache.ReadReq.avgMissLatency::cpu.data 104457.691147                       # average ReadReq miss latency ((Tick/Count))
system.cpu.dcache.ReadReq.avgMissLatency::total 104457.691147                       # average ReadReq miss latency ((Tick/Count))
system.cpu.dcache.ReadReq.mshrHits::cpu.data       126475                       # number of ReadReq MSHR hits (Count)
system.cpu.dcache.ReadReq.mshrHits::total       126475                       # number of ReadReq MSHR hits (Count)
system.cpu.dcache.ReadReq.mshrMisses::cpu.data        39235                       # number of ReadReq MSHR misses (Count)
system.cpu.dcache.ReadReq.mshrMisses::total        39235                       # number of ReadReq MSHR misses (Count)
system.cpu.dcache.ReadReq.mshrMissLatency::cpu.data   4627742012                       # number of ReadReq MSHR miss ticks (Tick)
system.cpu.dcache.ReadReq.mshrMissLatency::total   4627742012                       # number of ReadReq MSHR miss ticks (Tick)
system.cpu.dcache.ReadReq.mshrMissRate::cpu.data     0.003704                       # mshr miss rate for ReadReq accesses (Ratio)
system.cpu.dcache.ReadReq.mshrMissRate::total     0.003704                       # mshr miss rate for ReadReq accesses (Ratio)
system.cpu.dcache.ReadReq.avgMshrMissLatency::cpu.data 117949.331260                       # average ReadReq mshr miss latency ((Tick/Count))
system.cpu.dcache.ReadReq.avgMshrMissLatency::total 117949.331260                       # average ReadReq mshr miss latency ((Tick/Count))
system.cpu.dcache.WriteReq.hits::cpu.data     10717754                       # number of WriteReq hits (Count)
system.cpu.dcache.WriteReq.hits::total       10717754                       # number of WriteReq hits (Count)
system.cpu.dcache.WriteReq.misses::cpu.data        31092                       # number of WriteReq misses (Count)
system.cpu.dcache.WriteReq.misses::total        31092                       # number of WriteReq misses (Count)
system.cpu.dcache.WriteReq.missLatency::cpu.data   2847009992                       # number of WriteReq miss ticks (Tick)
system.cpu.dcache.WriteReq.missLatency::total   2847009992                       # number of WriteReq miss ticks (Tick)
system.cpu.dcache.WriteReq.accesses::cpu.data     10748846                       # number of WriteReq accesses(hits+misses) (Count)
system.cpu.dcache.WriteReq.accesses::total     10748846                       # number of WriteReq accesses(hits+misses) (Count)
system.cpu.dcache.WriteReq.missRate::cpu.data     0.002893                       # miss rate for WriteReq accesses (Ratio)
system.cpu.dcache.WriteReq.missRate::total     0.002893                       # miss rate for WriteReq accesses (Ratio)
system.cpu.dcache.WriteReq.avgMissLatency::cpu.data 91567.283932                       # average WriteReq miss latency ((Tick/Count))
system.cpu.dcache.WriteReq.avgMissLatency::total 91567.283932                       # average WriteReq miss latency ((Tick/Count))
system.cpu.dcache.WriteReq.mshrHits::cpu.data           41                       # number of WriteReq MSHR hits (Count)
system.cpu.dcache.WriteReq.mshrHits::total           41                       # number of WriteReq MSHR hits (Count)
system.cpu.dcache.WriteReq.mshrMisses::cpu.data        31051                       # number of WriteReq MSHR misses (Count)
system.cpu.dcache.WriteReq.mshrMisses::total        31051                       # number of WriteReq MSHR misses (Count)
system.cpu.dcache.WriteReq.mshrMissLatency::cpu.data   2784713992                       # number of WriteReq MSHR miss ticks (Tick)
system.cpu.dcache.WriteReq.mshrMissLatency::total   2784713992                       # number of WriteReq MSHR miss ticks (Tick)
system.cpu.dcache.WriteReq.mshrMissRate::cpu.data     0.002889                       # mshr miss rate for WriteReq accesses (Ratio)
system.cpu.dcache.WriteReq.mshrMissRate::total     0.002889                       # mshr miss rate for WriteReq accesses (Ratio)
system.cpu.dcache.WriteReq.avgMshrMissLatency::cpu.data 89681.942353                       # average WriteReq mshr miss latency ((Tick/Count))
system.cpu.dcache.WriteReq.avgMshrMissLatency::total 89681.942353                       # average WriteReq mshr miss latency ((Tick/Count))
system.cpu.dcache.power_state.pwrStateResidencyTicks::UNDEFINED  56549734000                       # Cumulative time (in ticks) in various power states (Tick)
system.cpu.dcache.tags.tagsInUse          1022.032054                       # Average ticks per tags in use ((Tick/Count))
system.cpu.dcache.tags.totalRefs             21225293                       # Total number of references to valid blocks. (Count)
system.cpu.dcache.tags.sampledRefs              60569                       # Sample count of references to valid blocks. (Count)
system.cpu.dcache.tags.avgRefs             350.431623                       # Average number of references to valid blocks. ((Count/Count))
system.cpu.dcache.tags.warmupTick              234000                       # The tick when the warmup percentage was hit. (Tick)
system.cpu.dcache.tags.occupancies::cpu.data  1022.032054                       # Average occupied blocks per tick, per requestor ((Count/Tick))
system.cpu.dcache.tags.avgOccs::cpu.data     0.998078                       # Average percentage of cache occupancy ((Ratio/Tick))
system.cpu.dcache.tags.avgOccs::total        0.998078                       # Average percentage of cache occupancy ((Ratio/Tick))
system.cpu.dcache.tags.occupanciesTaskId::1024         1024                       # Occupied blocks per task id (Count)
system.cpu.dcache.tags.ageTaskId_1024::0           55                       # Occupied blocks per task id, per block age (Count)
system.cpu.dcache.tags.ageTaskId_1024::1          517                       # Occupied blocks per task id, per block age (Count)
system.cpu.dcache.tags.ageTaskId_1024::2          450                       # Occupied blocks per task id, per block age (Count)
system.cpu.dcache.tags.ageTaskId_1024::3            2                       # Occupied blocks per task id, per block age (Count)
system.cpu.dcache.tags.ratioOccsTaskId::1024            1                       # Ratio of occupied blocks and all blocks, per task id (Ratio)
system.cpu.dcache.tags.tagAccesses           42743927                       # Number of tag accesses (Count)
system.cpu.dcache.tags.dataAccesses          42743927                       # Number of data accesses (Count)
system.cpu.dcache.tags.power_state.pwrStateResidencyTicks::UNDEFINED  56549734000                       # Cumulative time (in ticks) in various power states (Tick)
system.cpu.decode.idleCycles                  6263454                       # Number of cycles decode is idle (Cycle)
system.cpu.decode.blockedCycles              34891941                       # Number of cycles decode is blocked (Cycle)
system.cpu.decode.runCycles                  14238840                       # Number of cycles decode is running (Cycle)
system.cpu.decode.unblockCycles                900259                       # Number of cycles decode is unblocking (Cycle)
system.cpu.decode.squashCycles                 149899                       # Number of cycles decode is squashing (Cycle)
system.cpu.decode.branchResolved              4275252                       # Number of times decode resolved a branch (Count)
system.cpu.decode.branchMispred                   796                       # Number of times decode detected a branch misprediction (Count)
system.cpu.decode.decodedInsts              100663530                       # Number of instructions handled by decode (Count)
system.cpu.decode.squashedInsts                  3624                       # Number of squashed instructions handled by decode (Count)
system.cpu.fetch.icacheStallCycles            8457739                       # Number of cycles fetch is stalled on an Icache miss (Cycle)
system.cpu.fetch.insts                       58759611                       # Number of instructions fetch has processed (Count)
system.cpu.fetch.branches                     7655527                       # Number of branches that fetch encountered (Count)
system.cpu.fetch.predictedBranches            5932343                       # Number of branches that fetch has predicted taken (Count)
system.cpu.fetch.cycles                      47828961                       # Number of cycles fetch has run and was not squashing or blocked (Cycle)
system.cpu.fetch.squashCycles                  301346                       # Number of cycles fetch has spent squashing (Cycle)
system.cpu.fetch.miscStallCycles                  848                       # Number of cycles fetch has spent waiting on interrupts, or bad addresses, or out of MSHRs (Cycle)
system.cpu.fetch.pendingTrapStallCycles          5915                       # Number of stall cycles due to pending traps (Cycle)
system.cpu.fetch.pendingQuiesceStallCycles          255                       # Number of stall cycles due to pending quiesce instructions (Cycle)
system.cpu.fetch.icacheWaitRetryStallCycles            2                       # Number of stall cycles due to full MSHR (Cycle)
system.cpu.fetch.cacheLines                   8346658                       # Number of cache lines fetched (Count)
system.cpu.fetch.icacheSquashes                 49892                       # Number of outstanding Icache misses that were squashed (Count)
system.cpu.fetch.nisnDist::samples           56444393                       # Number of instructions fetched each cycle (Total) (Count)
system.cpu.fetch.nisnDist::mean              1.804418                       # Number of instructions fetched each cycle (Total) (Count)
system.cpu.fetch.nisnDist::stdev             3.066371                       # Number of instructions fetched each cycle (Total) (Count)
system.cpu.fetch.nisnDist::underflows               0      0.00%      0.00% # Number of instructions fetched each cycle (Total) (Count)
system.cpu.fetch.nisnDist::0                 39842059     70.59%     70.59% # Number of instructions fetched each cycle (Total) (Count)
system.cpu.fetch.nisnDist::1                   990915      1.76%     72.34% # Number of instructions fetched each cycle (Total) (Count)
system.cpu.fetch.nisnDist::2                   801111      1.42%     73.76% # Number of instructions fetched each cycle (Total) (Count)
system.cpu.fetch.nisnDist::3                  1225867      2.17%     75.93% # Number of instructions fetched each cycle (Total) (Count)
system.cpu.fetch.nisnDist::4                  1490294      2.64%     78.57% # Number of instructions fetched each cycle (Total) (Count)
system.cpu.fetch.nisnDist::5                   848041      1.50%     80.08% # Number of instructions fetched each cycle (Total) (Count)
system.cpu.fetch.nisnDist::6                  1677674      2.97%     83.05% # Number of instructions fetched each cycle (Total) (Count)
system.cpu.fetch.nisnDist::7                  1236349      2.19%     85.24% # Number of instructions fetched each cycle (Total) (Count)
system.cpu.fetch.nisnDist::8                  8332083     14.76%    100.00% # Number of instructions fetched each cycle (Total) (Count)
system.cpu.fetch.nisnDist::overflows                0      0.00%    100.00% # Number of instructions fetched each cycle (Total) (Count)
system.cpu.fetch.nisnDist::min_value                0                       # Number of instructions fetched each cycle (Total) (Count)
system.cpu.fetch.nisnDist::max_value                8                       # Number of instructions fetched each cycle (Total) (Count)
system.cpu.fetch.nisnDist::total             56444393                       # Number of instructions fetched each cycle (Total) (Count)
system.cpu.fetch.branchRate                  0.135377                       # Number of branch fetches per cycle (Ratio)
system.cpu.fetch.rate                        1.039078                       # Number of inst fetches per cycle ((Count/Cycle))
system.cpu.icache.demandHits::cpu.inst        8343586                       # number of demand (read+write) hits (Count)
system.cpu.icache.demandHits::total           8343586                       # number of demand (read+write) hits (Count)
system.cpu.icache.overallHits::cpu.inst       8343586                       # number of overall hits (Count)
system.cpu.icache.overallHits::total          8343586                       # number of overall hits (Count)
system.cpu.icache.demandMisses::cpu.inst         3072                       # number of demand (read+write) misses (Count)
system.cpu.icache.demandMisses::total            3072                       # number of demand (read+write) misses (Count)
system.cpu.icache.overallMisses::cpu.inst         3072                       # number of overall misses (Count)
system.cpu.icache.overallMisses::total           3072                       # number of overall misses (Count)
system.cpu.icache.demandMissLatency::cpu.inst    305624999                       # number of demand (read+write) miss ticks (Tick)
system.cpu.icache.demandMissLatency::total    305624999                       # number of demand (read+write) miss ticks (Tick)
system.cpu.icache.overallMissLatency::cpu.inst    305624999                       # number of overall miss ticks (Tick)
system.cpu.icache.overallMissLatency::total    305624999                       # number of overall miss ticks (Tick)
system.cpu.icache.demandAccesses::cpu.inst      8346658                       # number of demand (read+write) accesses (Count)
system.cpu.icache.demandAccesses::total       8346658                       # number of demand (read+write) accesses (Count)
system.cpu.icache.overallAccesses::cpu.inst      8346658                       # number of overall (read+write) accesses (Count)
system.cpu.icache.overallAccesses::total      8346658                       # number of overall (read+write) accesses (Count)
system.cpu.icache.demandMissRate::cpu.inst     0.000368                       # miss rate for demand accesses (Ratio)
system.cpu.icache.demandMissRate::total      0.000368                       # miss rate for demand accesses (Ratio)
system.cpu.icache.overallMissRate::cpu.inst     0.000368                       # miss rate for overall accesses (Ratio)
system.cpu.icache.overallMissRate::total     0.000368                       # miss rate for overall accesses (Ratio)
system.cpu.icache.demandAvgMissLatency::cpu.inst 99487.304362                       # average overall miss latency ((Cycle/Count))
system.cpu.icache.demandAvgMissLatency::total 99487.304362                       # average overall miss latency ((Cycle/Count))
system.cpu.icache.overallAvgMissLatency::cpu.inst 99487.304362                       # average overall miss latency ((Cycle/Count))
system.cpu.icache.overallAvgMissLatency::total 99487.304362                       # average overall miss latency ((Cycle/Count))
system.cpu.icache.blockedCycles::no_mshrs          440                       # number of cycles access was blocked (Cycle)
system.cpu.icache.blockedCycles::no_targets            0                       # number of cycles access was blocked (Cycle)
system.cpu.icache.blockedCauses::no_mshrs            9                       # number of times access was blocked (Count)
system.cpu.icache.blockedCauses::no_targets            0                       # number of times access was blocked (Count)
system.cpu.icache.avgBlocked::no_mshrs      48.888889                       # average number of cycles each access was blocked ((Cycle/Count))
system.cpu.icache.avgBlocked::no_targets          nan                       # average number of cycles each access was blocked ((Cycle/Count))
system.cpu.icache.demandMshrHits::cpu.inst          740                       # number of demand (read+write) MSHR hits (Count)
system.cpu.icache.demandMshrHits::total           740                       # number of demand (read+write) MSHR hits (Count)
system.cpu.icache.overallMshrHits::cpu.inst          740                       # number of overall MSHR hits (Count)
system.cpu.icache.overallMshrHits::total          740                       # number of overall MSHR hits (Count)
system.cpu.icache.demandMshrMisses::cpu.inst         2332                       # number of demand (read+write) MSHR misses (Count)
system.cpu.icache.demandMshrMisses::total         2332                       # number of demand (read+write) MSHR misses (Count)
system.cpu.icache.overallMshrMisses::cpu.inst         2332                       # number of overall MSHR misses (Count)
system.cpu.icache.overallMshrMisses::total         2332                       # number of overall MSHR misses (Count)
system.cpu.icache.demandMshrMissLatency::cpu.inst    244053999                       # number of demand (read+write) MSHR miss ticks (Tick)
system.cpu.icache.demandMshrMissLatency::total    244053999                       # number of demand (read+write) MSHR miss ticks (Tick)
system.cpu.icache.overallMshrMissLatency::cpu.inst    244053999                       # number of overall MSHR miss ticks (Tick)
system.cpu.icache.overallMshrMissLatency::total    244053999                       # number of overall MSHR miss ticks (Tick)
system.cpu.icache.demandMshrMissRate::cpu.inst     0.000279                       # mshr miss ratio for demand accesses (Ratio)
system.cpu.icache.demandMshrMissRate::total     0.000279                       # mshr miss ratio for demand accesses (Ratio)
system.cpu.icache.overallMshrMissRate::cpu.inst     0.000279                       # mshr miss ratio for overall accesses (Ratio)
system.cpu.icache.overallMshrMissRate::total     0.000279                       # mshr miss ratio for overall accesses (Ratio)
system.cpu.icache.demandAvgMshrMissLatency::cpu.inst 104654.373499                       # average overall mshr miss latency ((Cycle/Count))
system.cpu.icache.demandAvgMshrMissLatency::total 104654.373499                       # average overall mshr miss latency ((Cycle/Count))
system.cpu.icache.overallAvgMshrMissLatency::cpu.inst 104654.373499                       # average overall mshr miss latency ((Cycle/Count))
system.cpu.icache.overallAvgMshrMissLatency::total 104654.373499                       # average overall mshr miss latency ((Cycle/Count))
system.cpu.icache.replacements                   2074                       # number of replacements (Count)
system.cpu.icache.ReadReq.hits::cpu.inst      8343586                       # number of ReadReq hits (Count)
system.cpu.icache.ReadReq.hits::total         8343586                       # number of ReadReq hits (Count)
system.cpu.icache.ReadReq.misses::cpu.inst         3072                       # number of ReadReq misses (Count)
system.cpu.icache.ReadReq.misses::total          3072                       # number of ReadReq misses (Count)
system.cpu.icache.ReadReq.missLatency::cpu.inst    305624999                       # number of ReadReq miss ticks (Tick)
system.cpu.icache.ReadReq.missLatency::total    305624999                       # number of ReadReq miss ticks (Tick)
system.cpu.icache.ReadReq.accesses::cpu.inst      8346658                       # number of ReadReq accesses(hits+misses) (Count)
system.cpu.icache.ReadReq.accesses::total      8346658                       # number of ReadReq accesses(hits+misses) (Count)
system.cpu.icache.ReadReq.missRate::cpu.inst     0.000368                       # miss rate for ReadReq accesses (Ratio)
system.cpu.icache.ReadReq.missRate::total     0.000368                       # miss rate for ReadReq accesses (Ratio)
system.cpu.icache.ReadReq.avgMissLatency::cpu.inst 99487.304362                       # average ReadReq miss latency ((Tick/Count))
system.cpu.icache.ReadReq.avgMissLatency::total 99487.304362                       # average ReadReq miss latency ((Tick/Count))
system.cpu.icache.ReadReq.mshrHits::cpu.inst          740                       # number of ReadReq MSHR hits (Count)
system.cpu.icache.ReadReq.mshrHits::total          740                       # number of ReadReq MSHR hits (Count)
system.cpu.icache.ReadReq.mshrMisses::cpu.inst         2332                       # number of ReadReq MSHR misses (Count)
system.cpu.icache.ReadReq.mshrMisses::total         2332                       # number of ReadReq MSHR misses (Count)
system.cpu.icache.ReadReq.mshrMissLatency::cpu.inst    244053999                       # number of ReadReq MSHR miss ticks (Tick)
system.cpu.icache.ReadReq.mshrMissLatency::total    244053999                       # number of ReadReq MSHR miss ticks (Tick)
system.cpu.icache.ReadReq.mshrMissRate::cpu.inst     0.000279                       # mshr miss rate for ReadReq accesses (Ratio)
system.cpu.icache.ReadReq.mshrMissRate::total     0.000279                       # mshr miss rate for ReadReq accesses (Ratio)
system.cpu.icache.ReadReq.avgMshrMissLatency::cpu.inst 104654.373499                       # average ReadReq mshr miss latency ((Tick/Count))
system.cpu.icache.ReadReq.avgMshrMissLatency::total 104654.373499                       # average ReadReq mshr miss latency ((Tick/Count))
system.cpu.icache.power_state.pwrStateResidencyTicks::UNDEFINED  56549734000                       # Cumulative time (in ticks) in various power states (Tick)
system.cpu.icache.tags.tagsInUse           255.911535                       # Average ticks per tags in use ((Tick/Count))
system.cpu.icache.tags.totalRefs              8345917                       # Total number of references to valid blocks. (Count)
system.cpu.icache.tags.sampledRefs               2331                       # Sample count of references to valid blocks. (Count)
system.cpu.icache.tags.avgRefs            3580.401973                       # Average number of references to valid blocks. ((Count/Count))
system.cpu.icache.tags.warmupTick              109000                       # The tick when the warmup percentage was hit. (Tick)
system.cpu.icache.tags.occupancies::cpu.inst   255.911535                       # Average occupied blocks per tick, per requestor ((Count/Tick))
system.cpu.icache.tags.avgOccs::cpu.inst     0.999654                       # Average percentage of cache occupancy ((Ratio/Tick))
system.cpu.icache.tags.avgOccs::total        0.999654                       # Average percentage of cache occupancy ((Ratio/Tick))
system.cpu.icache.tags.occupanciesTaskId::1024          256                       # Occupied blocks per task id (Count)
system.cpu.icache.tags.ageTaskId_1024::0           73                       # Occupied blocks per task id, per block age (Count)
system.cpu.icache.tags.ageTaskId_1024::1          156                       # Occupied blocks per task id, per block age (Count)
system.cpu.icache.tags.ageTaskId_1024::4           27                       # Occupied blocks per task id, per block age (Count)
system.cpu.icache.tags.ratioOccsTaskId::1024            1                       # Ratio of occupied blocks and all blocks, per task id (Ratio)
system.cpu.icache.tags.tagAccesses           16695647                       # Number of tag accesses (Count)
system.cpu.icache.tags.dataAccesses          16695647                       # Number of data accesses (Count)
system.cpu.icache.tags.power_state.pwrStateResidencyTicks::UNDEFINED  56549734000                       # Cumulative time (in ticks) in various power states (Tick)
system.cpu.interrupts.clk_domain.clock          16000                       # Clock period in ticks (Tick)
system.cpu.lsq0.forwLoads                    11411477                       # Number of loads that had data forwarded from stores (Count)
system.cpu.lsq0.squashedLoads                 3530682                       # Number of loads squashed (Count)
system.cpu.lsq0.ignoredResponses                24833                       # Number of memory responses ignored because the instruction is squashed (Count)
system.cpu.lsq0.memOrderViolation                3109                       # Number of memory ordering violations (Count)
system.cpu.lsq0.squashedStores                 789818                       # Number of stores squashed (Count)
system.cpu.lsq0.rescheduledLoads                    5                       # Number of loads that were rescheduled (Count)
system.cpu.lsq0.blockedByCache                    504                       # Number of times an access to memory failed due to the cache being blocked (Count)
system.cpu.lsq0.loadToUse::samples           19316000                       # Distribution of cycle latency between the first time a load is issued and its completion (Unspecified)
system.cpu.lsq0.loadToUse::mean              3.425900                       # Distribution of cycle latency between the first time a load is issued and its completion (Unspecified)
system.cpu.lsq0.loadToUse::stdev            10.444984                       # Distribution of cycle latency between the first time a load is issued and its completion (Unspecified)
system.cpu.lsq0.loadToUse::0-9               19160203     99.19%     99.19% # Distribution of cycle latency between the first time a load is issued and its completion (Unspecified)
system.cpu.lsq0.loadToUse::10-19                 1192      0.01%     99.20% # Distribution of cycle latency between the first time a load is issued and its completion (Unspecified)
system.cpu.lsq0.loadToUse::20-29                 1822      0.01%     99.21% # Distribution of cycle latency between the first time a load is issued and its completion (Unspecified)
system.cpu.lsq0.loadToUse::30-39                 5909      0.03%     99.24% # Distribution of cycle latency between the first time a load is issued and its completion (Unspecified)
system.cpu.lsq0.loadToUse::40-49                  694      0.00%     99.24% # Distribution of cycle latency between the first time a load is issued and its completion (Unspecified)
system.cpu.lsq0.loadToUse::50-59                  405      0.00%     99.25% # Distribution of cycle latency between the first time a load is issued and its completion (Unspecified)
system.cpu.lsq0.loadToUse::60-69                 9489      0.05%     99.29% # Distribution of cycle latency between the first time a load is issued and its completion (Unspecified)
system.cpu.lsq0.loadToUse::70-79                 1456      0.01%     99.30% # Distribution of cycle latency between the first time a load is issued and its completion (Unspecified)
system.cpu.lsq0.loadToUse::80-89                17519      0.09%     99.39% # Distribution of cycle latency between the first time a load is issued and its completion (Unspecified)
system.cpu.lsq0.loadToUse::90-99                30363      0.16%     99.55% # Distribution of cycle latency between the first time a load is issued and its completion (Unspecified)
system.cpu.lsq0.loadToUse::100-109              24893      0.13%     99.68% # Distribution of cycle latency between the first time a load is issued and its completion (Unspecified)
system.cpu.lsq0.loadToUse::110-119              18798      0.10%     99.78% # Distribution of cycle latency between the first time a load is issued and its completion (Unspecified)
system.cpu.lsq0.loadToUse::120-129              23350      0.12%     99.90% # Distribution of cycle latency between the first time a load is issued and its completion (Unspecified)
system.cpu.lsq0.loadToUse::130-139                949      0.00%     99.90% # Distribution of cycle latency between the first time a load is issued and its completion (Unspecified)
system.cpu.lsq0.loadToUse::140-149                357      0.00%     99.90% # Distribution of cycle latency between the first time a load is issued and its completion (Unspecified)
system.cpu.lsq0.loadToUse::150-159                324      0.00%     99.91% # Distribution of cycle latency between the first time a load is issued and its completion (Unspecified)
system.cpu.lsq0.loadToUse::160-169                544      0.00%     99.91% # Distribution of cycle latency between the first time a load is issued and its completion (Unspecified)
system.cpu.lsq0.loadToUse::170-179               7756      0.04%     99.95% # Distribution of cycle latency between the first time a load is issued and its completion (Unspecified)
system.cpu.lsq0.loadToUse::180-189               1767      0.01%     99.96% # Distribution of cycle latency between the first time a load is issued and its completion (Unspecified)
system.cpu.lsq0.loadToUse::190-199               1722      0.01%     99.97% # Distribution of cycle latency between the first time a load is issued and its completion (Unspecified)
system.cpu.lsq0.loadToUse::200-209               1205      0.01%     99.97% # Distribution of cycle latency between the first time a load is issued and its completion (Unspecified)
system.cpu.lsq0.loadToUse::210-219                965      0.00%     99.98% # Distribution of cycle latency between the first time a load is issued and its completion (Unspecified)
system.cpu.lsq0.loadToUse::220-229                694      0.00%     99.98% # Distribution of cycle latency between the first time a load is issued and its completion (Unspecified)
system.cpu.lsq0.loadToUse::230-239                458      0.00%     99.98% # Distribution of cycle latency between the first time a load is issued and its completion (Unspecified)
system.cpu.lsq0.loadToUse::240-249                332      0.00%     99.99% # Distribution of cycle latency between the first time a load is issued and its completion (Unspecified)
system.cpu.lsq0.loadToUse::250-259                238      0.00%     99.99% # Distribution of cycle latency between the first time a load is issued and its completion (Unspecified)
system.cpu.lsq0.loadToUse::260-269                288      0.00%     99.99% # Distribution of cycle latency between the first time a load is issued and its completion (Unspecified)
system.cpu.lsq0.loadToUse::270-279                248      0.00%     99.99% # Distribution of cycle latency between the first time a load is issued and its completion (Unspecified)
system.cpu.lsq0.loadToUse::280-289                165      0.00%     99.99% # Distribution of cycle latency between the first time a load is issued and its completion (Unspecified)
system.cpu.lsq0.loadToUse::290-299                170      0.00%     99.99% # Distribution of cycle latency between the first time a load is issued and its completion (Unspecified)
system.cpu.lsq0.loadToUse::overflows             1725      0.01%    100.00% # Distribution of cycle latency between the first time a load is issued and its completion (Unspecified)
[...]
system.victimbus.snoops                        112985                       # Total snoops (Count)
system.victimbus.snoopTraffic                 7230784                       # Total snoop traffic (Byte)
system.victimbus.snoopFanout::samples          183279                       # Request fanout histogram (Count)
system.victimbus.snoopFanout::mean           0.311165                       # Request fanout histogram (Count)
system.victimbus.snoopFanout::stdev          0.462971                       # Request fanout histogram (Count)
system.victimbus.snoopFanout::underflows            0      0.00%      0.00% # Request fanout histogram (Count)
system.victimbus.snoopFanout::0                126249     68.88%     68.88% # Request fanout histogram (Count)
system.victimbus.snoopFanout::1                 57030     31.12%    100.00% # Request fanout histogram (Count)
system.victimbus.snoopFanout::overflows             0      0.00%    100.00% # Request fanout histogram (Count)
system.victimbus.snoopFanout::min_value             0                       # Request fanout histogram (Count)
system.victimbus.snoopFanout::max_value             1                       # Request fanout histogram (Count)
system.victimbus.snoopFanout::total            183279                       # Request fanout histogram (Count)
system.victimbus.power_state.pwrStateResidencyTicks::UNDEFINED  56549734000                       # Cumulative time (in ticks) in various power states (Tick)
system.victimbus.reqLayer0.occupancy        189460994                       # Layer occupancy (ticks) (Tick)
system.victimbus.reqLayer0.utilization            0.0                       # Layer utilization (Ratio)
system.victimbus.respLayer0.occupancy       201108717                       # Layer occupancy (ticks) (Tick)
system.victimbus.respLayer0.utilization           0.0                       # Layer utilization (Ratio)
system.victimbus.snoopLayer0.occupancy           2000                       # Layer occupancy (ticks) (Tick)
system.victimbus.snoopLayer0.utilization          0.0                       # Layer utilization (Ratio)
system.victimbus.snoop_filter.totRequests       129878                       # Total number of requests made to the snoop filter. (Count)
system.victimbus.snoop_filter.hitSingleRequests        69277                       # Number of requests hitting in the snoop filter with a single holder of the requested data. (Count)
system.victimbus.snoop_filter.hitMultiRequests            0                       # Number of requests hitting in the snoop filter with multiple (>1) holders of the requested data. (Count)
system.victimbus.snoop_filter.totSnoops         57030                       # Total number of snoops made to the snoop filter. (Count)
system.victimbus.snoop_filter.hitSingleSnoops        57030                       # Number of snoops hitting in the snoop filter with a single holder of the requested data. (Count)
system.victimbus.snoop_filter.hitMultiSnoops            0                       # Number of snoops hitting in the snoop filter with multiple (>1) holders of the requested data. (Count)
system.victimcache.demandHits::cpu.data          3606                       # number of demand (read+write) hits (Count)
system.victimcache.demandHits::total             3606                       # number of demand (read+write) hits (Count)
system.victimcache.overallHits::cpu.data         3606                       # number of overall hits (Count)
system.victimcache.overallHits::total            3606                       # number of overall hits (Count)
system.victimcache.demandMisses::cpu.data        56995                       # number of demand (read+write) misses (Count)
system.victimcache.demandMisses::total          56995                       # number of demand (read+write) misses (Count)
system.victimcache.overallMisses::cpu.data        56995                       # number of overall misses (Count)
system.victimcache.overallMisses::total         56995                       # number of overall misses (Count)
system.victimcache.demandMissLatency::cpu.data   6692870000                       # number of demand (read+write) miss ticks (Tick)
system.victimcache.demandMissLatency::total   6692870000                       # number of demand (read+write) miss ticks (Tick)
system.victimcache.overallMissLatency::cpu.data   6692870000                       # number of overall miss ticks (Tick)
system.victimcache.overallMissLatency::total   6692870000                       # number of overall miss ticks (Tick)
system.victimcache.demandAccesses::cpu.data        60601                       # number of demand (read+write) accesses (Count)
system.victimcache.demandAccesses::total        60601                       # number of demand (read+write) accesses (Count)
system.victimcache.overallAccesses::cpu.data        60601                       # number of overall (read+write) accesses (Count)
system.victimcache.overallAccesses::total        60601                       # number of overall (read+write) accesses (Count)
system.victimcache.demandMissRate::cpu.data     0.940496                       # miss rate for demand accesses (Ratio)
system.victimcache.demandMissRate::total     0.940496                       # miss rate for demand accesses (Ratio)
system.victimcache.overallMissRate::cpu.data     0.940496                       # miss rate for overall accesses (Ratio)
system.victimcache.overallMissRate::total     0.940496                       # miss rate for overall accesses (Ratio)
system.victimcache.demandAvgMissLatency::cpu.data 117429.072726                       # average overall miss latency ((Cycle/Count))
system.victimcache.demandAvgMissLatency::total 117429.072726                       # average overall miss latency ((Cycle/Count))
system.victimcache.overallAvgMissLatency::cpu.data 117429.072726                       # average overall miss latency ((Cycle/Count))
system.victimcache.overallAvgMissLatency::total 117429.072726                       # average overall miss latency ((Cycle/Count))
system.victimcache.blockedCycles::no_mshrs        19394                       # number of cycles access was blocked (Cycle)
system.victimcache.blockedCycles::no_targets            0                       # number of cycles access was blocked (Cycle)
system.victimcache.blockedCauses::no_mshrs          548                       # number of times access was blocked (Count)
system.victimcache.blockedCauses::no_targets            0                       # number of times access was blocked (Count)
system.victimcache.avgBlocked::no_mshrs     35.390511                       # average number of cycles each access was blocked ((Cycle/Count))
system.victimcache.avgBlocked::no_targets          nan                       # average number of cycles each access was blocked ((Cycle/Count))
system.victimcache.writebacks::writebacks       112948                       # number of writebacks (Count)
system.victimcache.writebacks::total           112948                       # number of writebacks (Count)
system.victimcache.demandMshrMisses::cpu.data        56995                       # number of demand (read+write) MSHR misses (Count)
system.victimcache.demandMshrMisses::total        56995                       # number of demand (read+write) MSHR misses (Count)
system.victimcache.overallMshrMisses::cpu.data        56995                       # number of overall MSHR misses (Count)
system.victimcache.overallMshrMisses::total        56995                       # number of overall MSHR misses (Count)
system.victimcache.demandMshrMissLatency::cpu.data   6692870000                       # number of demand (read+write) MSHR miss ticks (Tick)
system.victimcache.demandMshrMissLatency::total   6692870000                       # number of demand (read+write) MSHR miss ticks (Tick)
system.victimcache.overallMshrMissLatency::cpu.data   6692870000                       # number of overall MSHR miss ticks (Tick)
system.victimcache.overallMshrMissLatency::total   6692870000                       # number of overall MSHR miss ticks (Tick)
system.victimcache.demandMshrMissRate::cpu.data     0.940496                       # mshr miss ratio for demand accesses (Ratio)
system.victimcache.demandMshrMissRate::total     0.940496                       # mshr miss ratio for demand accesses (Ratio)
system.victimcache.overallMshrMissRate::cpu.data     0.940496                       # mshr miss ratio for overall accesses (Ratio)
system.victimcache.overallMshrMissRate::total     0.940496                       # mshr miss ratio for overall accesses (Ratio)
system.victimcache.demandAvgMshrMissLatency::cpu.data 117429.072726                       # average overall mshr miss latency ((Cycle/Count))
system.victimcache.demandAvgMshrMissLatency::total 117429.072726                       # average overall mshr miss latency ((Cycle/Count))
system.victimcache.overallAvgMshrMissLatency::cpu.data 117429.072726                       # average overall mshr miss latency ((Cycle/Count))
system.victimcache.overallAvgMshrMissLatency::total 117429.072726                       # average overall mshr miss latency ((Cycle/Count))
system.victimcache.replacements                 55954                       # number of replacements (Count)
system.victimcache.ReadExReq.hits::cpu.data         2867                       # number of ReadExReq hits (Count)
system.victimcache.ReadExReq.hits::total         2867                       # number of ReadExReq hits (Count)
system.victimcache.ReadExReq.misses::cpu.data        18531                       # number of ReadExReq misses (Count)
system.victimcache.ReadExReq.misses::total        18531                       # number of ReadExReq misses (Count)
system.victimcache.ReadExReq.missLatency::cpu.data   2183078000                       # number of ReadExReq miss ticks (Tick)
system.victimcache.ReadExReq.missLatency::total   2183078000                       # number of ReadExReq miss ticks (Tick)
system.victimcache.ReadExReq.accesses::cpu.data        21398                       # number of ReadExReq accesses(hits+misses) (Count)
system.victimcache.ReadExReq.accesses::total        21398                       # number of ReadExReq accesses(hits+misses) (Count)
system.victimcache.ReadExReq.missRate::cpu.data     0.866016                       # miss rate for ReadExReq accesses (Ratio)
system.victimcache.ReadExReq.missRate::total     0.866016                       # miss rate for ReadExReq accesses (Ratio)
system.victimcache.ReadExReq.avgMissLatency::cpu.data 117806.810210                       # average ReadExReq miss latency ((Tick/Count))
system.victimcache.ReadExReq.avgMissLatency::total 117806.810210                       # average ReadExReq miss latency ((Tick/Count))
system.victimcache.ReadExReq.mshrMisses::cpu.data        18531                       # number of ReadExReq MSHR misses (Count)
system.victimcache.ReadExReq.mshrMisses::total        18531                       # number of ReadExReq MSHR misses (Count)
system.victimcache.ReadExReq.mshrMissLatency::cpu.data   2183078000                       # number of ReadExReq MSHR miss ticks (Tick)
system.victimcache.ReadExReq.mshrMissLatency::total   2183078000                       # number of ReadExReq MSHR miss ticks (Tick)
system.victimcache.ReadExReq.mshrMissRate::cpu.data     0.866016                       # mshr miss rate for ReadExReq accesses (Ratio)
system.victimcache.ReadExReq.mshrMissRate::total     0.866016                       # mshr miss rate for ReadExReq accesses (Ratio)
system.victimcache.ReadExReq.avgMshrMissLatency::cpu.data 117806.810210                       # average ReadExReq mshr miss latency ((Tick/Count))
system.victimcache.ReadExReq.avgMshrMissLatency::total 117806.810210                       # average ReadExReq mshr miss latency ((Tick/Count))
system.victimcache.ReadSharedReq.hits::cpu.data          739                       # number of ReadSharedReq hits (Count)
system.victimcache.ReadSharedReq.hits::total          739                       # number of ReadSharedReq hits (Count)
system.victimcache.ReadSharedReq.misses::cpu.data        38464                       # number of ReadSharedReq misses (Count)
system.victimcache.ReadSharedReq.misses::total        38464                       # number of ReadSharedReq misses (Count)
system.victimcache.ReadSharedReq.missLatency::cpu.data   4509792000                       # number of ReadSharedReq miss ticks (Tick)
system.victimcache.ReadSharedReq.missLatency::total   4509792000                       # number of ReadSharedReq miss ticks (Tick)
system.victimcache.ReadSharedReq.accesses::cpu.data        39203                       # number of ReadSharedReq accesses(hits+misses) (Count)
system.victimcache.ReadSharedReq.accesses::total        39203                       # number of ReadSharedReq accesses(hits+misses) (Count)
system.victimcache.ReadSharedReq.missRate::cpu.data     0.981149                       # miss rate for ReadSharedReq accesses (Ratio)
system.victimcache.ReadSharedReq.missRate::total     0.981149                       # miss rate for ReadSharedReq accesses (Ratio)
system.victimcache.ReadSharedReq.avgMissLatency::cpu.data 117247.088186                       # average ReadSharedReq miss latency ((Tick/Count))
system.victimcache.ReadSharedReq.avgMissLatency::total 117247.088186                       # average ReadSharedReq miss latency ((Tick/Count))
system.victimcache.ReadSharedReq.mshrMisses::cpu.data        38464                       # number of ReadSharedReq MSHR misses (Count)
system.victimcache.ReadSharedReq.mshrMisses::total        38464                       # number of ReadSharedReq MSHR misses (Count)
system.victimcache.ReadSharedReq.mshrMissLatency::cpu.data   4509792000                       # number of ReadSharedReq MSHR miss ticks (Tick)
system.victimcache.ReadSharedReq.mshrMissLatency::total   4509792000                       # number of ReadSharedReq MSHR miss ticks (Tick)
system.victimcache.ReadSharedReq.mshrMissRate::cpu.data     0.981149                       # mshr miss rate for ReadSharedReq accesses (Ratio)
system.victimcache.ReadSharedReq.mshrMissRate::total     0.981149                       # mshr miss rate for ReadSharedReq accesses (Ratio)
system.victimcache.ReadSharedReq.avgMshrMissLatency::cpu.data 117247.088186                       # average ReadSharedReq mshr miss latency ((Tick/Count))
system.victimcache.ReadSharedReq.avgMshrMissLatency::total 117247.088186                       # average ReadSharedReq mshr miss latency ((Tick/Count))
system.victimcache.UpgradeReq.misses::cpu.data         9694                       # number of UpgradeReq misses (Count)
system.victimcache.UpgradeReq.misses::total         9694                       # number of UpgradeReq misses (Count)
system.victimcache.UpgradeReq.accesses::cpu.data         9694                       # number of UpgradeReq accesses(hits+misses) (Count)
system.victimcache.UpgradeReq.accesses::total         9694                       # number of UpgradeReq accesses(hits+misses) (Count)
system.victimcache.UpgradeReq.missRate::cpu.data            1                       # miss rate for UpgradeReq accesses (Ratio)
system.victimcache.UpgradeReq.missRate::total            1                       # miss rate for UpgradeReq accesses (Ratio)
system.victimcache.UpgradeReq.mshrMisses::cpu.data         9694                       # number of UpgradeReq MSHR misses (Count)
system.victimcache.UpgradeReq.mshrMisses::total         9694                       # number of UpgradeReq MSHR misses (Count)
system.victimcache.UpgradeReq.mshrMissLatency::cpu.data    507713000                       # number of UpgradeReq MSHR miss ticks (Tick)
system.victimcache.UpgradeReq.mshrMissLatency::total    507713000                       # number of UpgradeReq MSHR miss ticks (Tick)
system.victimcache.UpgradeReq.mshrMissRate::cpu.data            1                       # mshr miss rate for UpgradeReq accesses (Ratio)
system.victimcache.UpgradeReq.mshrMissRate::total            1                       # mshr miss rate for UpgradeReq accesses (Ratio)
system.victimcache.UpgradeReq.avgMshrMissLatency::cpu.data 52373.942645                       # average UpgradeReq mshr miss latency ((Tick/Count))
system.victimcache.UpgradeReq.avgMshrMissLatency::total 52373.942645                       # average UpgradeReq mshr miss latency ((Tick/Count))
system.victimcache.WritebackClean.hits::writebacks        28065                       # number of WritebackClean hits (Count)
system.victimcache.WritebackClean.hits::total        28065                       # number of WritebackClean hits (Count)
system.victimcache.WritebackClean.accesses::writebacks        28065                       # number of WritebackClean accesses(hits+misses) (Count)
system.victimcache.WritebackClean.accesses::total        28065                       # number of WritebackClean accesses(hits+misses) (Count)
system.victimcache.WritebackDirty.hits::writebacks        31512                       # number of WritebackDirty hits (Count)
system.victimcache.WritebackDirty.hits::total        31512                       # number of WritebackDirty hits (Count)
system.victimcache.WritebackDirty.accesses::writebacks        31512                       # number of WritebackDirty accesses(hits+misses) (Count)
system.victimcache.WritebackDirty.accesses::total        31512                       # number of WritebackDirty accesses(hits+misses) (Count)
system.victimcache.power_state.pwrStateResidencyTicks::UNDEFINED  56549734000                       # Cumulative time (in ticks) in various power states (Tick)
system.victimcache.tags.tagsInUse           15.978102                       # Average ticks per tags in use ((Tick/Count))
system.victimcache.tags.totalRefs               63184                       # Total number of references to valid blocks. (Count)
system.victimcache.tags.sampledRefs             59576                       # Sample count of references to valid blocks. (Count)
system.victimcache.tags.avgRefs              1.060561                       # Average number of references to valid blocks. ((Count/Count))
system.victimcache.tags.warmupTick           66379000                       # The tick when the warmup percentage was hit. (Tick)
system.victimcache.tags.occupancies::writebacks    15.978102                       # Average occupied blocks per tick, per requestor ((Count/Tick))
system.victimcache.tags.avgOccs::writebacks     0.998631                       # Average percentage of cache occupancy ((Ratio/Tick))
system.victimcache.tags.avgOccs::total       0.998631                       # Average percentage of cache occupancy ((Ratio/Tick))
system.victimcache.tags.occupanciesTaskId::1024           16                       # Occupied blocks per task id (Count)
system.victimcache.tags.ageTaskId_1024::0           16                       # Occupied blocks per task id, per block age (Count)
system.victimcache.tags.ratioOccsTaskId::1024            1                       # Ratio of occupied blocks and all blocks, per task id (Ratio)
system.victimcache.tags.tagAccesses           2137528                       # Number of tag accesses (Count)
system.victimcache.tags.dataAccesses          2137528                       # Number of data accesses (Count)
system.victimcache.tags.power_state.pwrStateResidencyTicks::UNDEFINED  56549734000                       # Cumulative time (in ticks) in various power states (Tick)
system.workload.inst.arm                            0                       # number of arm instructions executed (Count)
system.workload.inst.quiesce                        0                       # number of quiesce instructions executed (Count)

---------- End Simulation Statistics   ----------
