
---------- Begin Simulation Statistics ----------
simSeconds                                   0.056454                       # Number of seconds simulated (Second)
simTicks                                  56454180000                       # Number of ticks simulated (Tick)
finalTick                                 56454180000                       # Number of ticks from beginning of simulation (restored from checkpoints and never reset) (Tick)
simFreq                                  1000000000000                       # The number of ticks per simulated second ((Tick/Second))
hostSeconds                                    284.05                       # Real time elapsed on the host (Second)
hostTickRate                                198750352                       # The number of ticks simulated per host second (ticks/s) ((Tick/Second))
hostMemory                                     702076                       # Number of bytes of host memory used (Byte)
simInsts                                     48413712                       # Number of instructions simulated (Count)
simOps                                       86500844                       # Number of ops (including micro ops) simulated (Count)
hostInstRate                                   170443                       # Simulator instruction rate (inst/s) ((Count/Second))
hostOpRate                                     304531                       # Simulator op (including micro ops) rate (op/s) ((Count/Second))
system.clk_domain.clock                          1000                       # Clock period in ticks (Tick)
system.clk_domain.voltage_domain.voltage            1                       # Voltage in Volts (Volt)
system.cpu.numCycles                         56454181                       # Number of cpu cycles simulated (Cycle)
system.cpu.numWorkItemsStarted                      0                       # Number of work items this cpu started (Count)
system.cpu.numWorkItemsCompleted                    0                       # Number of work items this cpu completed (Count)
system.cpu.instsAdded                        97760712                       # Number of instructions added to the IQ (excludes non-spec) (Count)
system.cpu.nonSpecInstsAdded                   917799                       # Number of non-speculative instructions added to the IQ (Count)
system.cpu.instsIssued                       95020054                       # Number of instructions issued (Count)
system.cpu.squashedInstsIssued                   8996                       # Number of squashed instructions issued (Count)
system.cpu.squashedInstsExamined             12177661                       # Number of squashed instructions iterated over during squash; mainly for profiling (Count)
system.cpu.squashedOperandsExamined          14426894                       # Number of squashed operands that are examined and possibly removed from graph (Count)
system.cpu.squashedNonSpecRemoved                 133                       # Number of squashed non-spec instructions that were removed (Count)
system.cpu.numIssuedDist::samples            56348286                       # Number of insts issued each cycle (Count)
system.cpu.numIssuedDist::mean               1.686299                       # Number of insts issued each cycle (Count)
system.cpu.numIssuedDist::stdev              2.036448                       # Number of insts issued each cycle (Count)
system.cpu.numIssuedDist::underflows                0      0.00%      0.00% # Number of insts issued each cycle (Count)
system.cpu.numIssuedDist::0                  24822334     44.05%     44.05% # Number of insts issued each cycle (Count)
system.cpu.numIssuedDist::1                   9524458     16.90%     60.95% # Number of insts issued each cycle (Count)
system.cpu.numIssuedDist::2                   5471096      9.71%     70.66% # Number of insts issued each cycle (Count)
system.cpu.numIssuedDist::3                   4780291      8.48%     79.15% # Number of insts issued each cycle (Count)
system.cpu.numIssuedDist::4                   3361542      5.97%     85.11% # Number of insts issued each cycle (Count)
system.cpu.numIssuedDist::5                   4811986      8.54%     93.65% # Number of insts issued each cycle (Count)
system.cpu.numIssuedDist::6                   2545787      4.52%     98.17% # Number of insts issued each cycle (Count)
system.cpu.numIssuedDist::7                    814625      1.45%     99.62% # Number of insts issued each cycle (Count)
system.cpu.numIssuedDist::8                    216167      0.38%    100.00% # Number of insts issued each cycle (Count)
system.cpu.numIssuedDist::overflows                 0      0.00%    100.00% # Number of insts issued each cycle (Count)
system.cpu.numIssuedDist::min_value                 0                       # Number of insts issued each cycle (Count)
system.cpu.numIssuedDist::max_value                 8                       # Number of insts issued each cycle (Count)
system.cpu.numIssuedDist::total              56348286                       # Number of insts issued each cycle (Count)
system.cpu.statFuBusy::No_OpClass                   0      0.00%      0.00% # attempts to use FU when none available (Count)
system.cpu.statFuBusy::IntAlu                   82322     25.24%     25.24% # attempts to use FU when none available (Count)
system.cpu.statFuBusy::IntMult                      0      0.00%     25.24% # attempts to use FU when none available (Count)
system.cpu.statFuBusy::IntDiv                       0      0.00%     25.24% # attempts to use FU when none available (Count)
system.cpu.statFuBusy::FloatAdd                     0      0.00%     25.24% # attempts to use FU when none available (Count)
system.cpu.statFuBusy::FloatCmp                     0      0.00%     25.24% # attempts to use FU when none available (Count)
system.cpu.statFuBusy::FloatCvt                     0      0.00%     25.24% # attempts to use FU when none available (Count)
system.cpu.statFuBusy::FloatMult                    0      0.00%     25.24% # attempts to use FU when none available (Count)
system.cpu.statFuBusy::FloatMultAcc                 0      0.00%     25.24% # attempts to use FU when none available (Count)
system.cpu.statFuBusy::FloatDiv                     0      0.00%     25.24% # attempts to use FU when none available (Count)
system.cpu.statFuBusy::FloatMisc                    0      0.00%     25.24% # attempts to use FU when none available (Count)
system.cpu.statFuBusy::FloatSqrt                    0      0.00%     25.24% # attempts to use FU when none available (Count)
system.cpu.statFuBusy::SimdAdd                      3      0.00%     25.25% # attempts to use FU when none available (Count)
system.cpu.statFuBusy::SimdAddAcc                   0      0.00%     25.25% # attempts to use FU when none available (Count)
system.cpu.statFuBusy::SimdAlu                     38      0.01%     25.26% # attempts to use FU when none available (Count)
system.cpu.statFuBusy::SimdCmp                      0      0.00%     25.26% # attempts to use FU when none available (Count)
system.cpu.statFuBusy::SimdCvt                   1009      0.31%     25.57% # attempts to use FU when none available (Count)
system.cpu.statFuBusy::SimdMisc                    12      0.00%     25.57% # attempts to use FU when none available (Count)
system.cpu.statFuBusy::SimdMult                     0      0.00%     25.57% # attempts to use FU when none available (Count)
system.cpu.statFuBusy::SimdMultAcc                  0      0.00%     25.57% # attempts to use FU when none available (Count)
system.cpu.statFuBusy::SimdShift                   11      0.00%     25.57% # attempts to use FU when none available (Count)
system.cpu.statFuBusy::SimdShiftAcc                 0      0.00%     25.57% # attempts to use FU when none available (Count)
system.cpu.statFuBusy::SimdDiv                      0      0.00%     25.57% # attempts to use FU when none available (Count)
system.cpu.statFuBusy::SimdSqrt                     0      0.00%     25.57% # attempts to use FU when none available (Count)
system.cpu.statFuBusy::SimdFloatAdd                 1      0.00%     25.57% # attempts to use FU when none available (Count)
system.cpu.statFuBusy::SimdFloatAlu                 0      0.00%     25.57% # attempts to use FU when none available (Count)
system.cpu.statFuBusy::SimdFloatCmp                 0      0.00%     25.57% # attempts to use FU when none available (Count)
system.cpu.statFuBusy::SimdFloatCvt                 0      0.00%     25.57% # attempts to use FU when none available (Count)
system.cpu.statFuBusy::SimdFloatDiv                 0      0.00%     25.57% # attempts to use FU when none available (Count)
system.cpu.statFuBusy::SimdFloatMisc                0      0.00%     25.57% # attempts to use FU when none available (Count)
system.cpu.statFuBusy::SimdFloatMult                0      0.00%     25.57% # attempts to use FU when none available (Count)
system.cpu.statFuBusy::SimdFloatMultAcc             0      0.00%     25.57% # attempts to use FU when none available (Count)
system.cpu.statFuBusy::SimdFloatSqrt                0      0.00%     25.57% # attempts to use FU when none available (Count)
system.cpu.statFuBusy::SimdReduceAdd                0      0.00%     25.57% # attempts to use FU when none available (Count)
system.cpu.statFuBusy::SimdReduceAlu                0      0.00%     25.57% # attempts to use FU when none available (Count)
system.cpu.statFuBusy::SimdReduceCmp                0      0.00%     25.57% # attempts to use FU when none available (Count)
system.cpu.statFuBusy::SimdFloatReduceAdd            0      0.00%     25.57% # attempts to use FU when none available (Count)
system.cpu.statFuBusy::SimdFloatReduceCmp            0      0.00%     25.57% # attempts to use FU when none available (Count)
system.cpu.statFuBusy::SimdAes                      0      0.00%     25.57% # attempts to use FU when none available (Count)
system.cpu.statFuBusy::SimdAesMix                   0      0.00%     25.57% # attempts to use FU when none available (Count)
system.cpu.statFuBusy::SimdSha1Hash                 0      0.00%     25.57% # attempts to use FU when none available (Count)
system.cpu.statFuBusy::SimdSha1Hash2                0      0.00%     25.57% # attempts to use FU when none available (Count)
system.cpu.statFuBusy::SimdSha256Hash               0      0.00%     25.57% # attempts to use FU when none available (Count)
system.cpu.statFuBusy::SimdSha256Hash2              0      0.00%     25.57% # attempts to use FU when none available (Count)
system.cpu.statFuBusy::SimdShaSigma2                0      0.00%     25.57% # attempts to use FU when none available (Count)
system.cpu.statFuBusy::SimdShaSigma3                0      0.00%     25.57% # attempts to use FU when none available (Count)
system.cpu.statFuBusy::SimdPredAlu                  0      0.00%     25.57% # attempts to use FU when none available (Count)
system.cpu.statFuBusy::MemRead                 169765     52.06%     77.63% # attempts to use FU when none available (Count)
system.cpu.statFuBusy::MemWrite                 72561     22.25%     99.88% # attempts to use FU when none available (Count)
system.cpu.statFuBusy::FloatMemRead               159      0.05%     99.93% # attempts to use FU when none available (Count)
system.cpu.statFuBusy::FloatMemWrite              220      0.07%    100.00% # attempts to use FU when none available (Count)
system.cpu.statFuBusy::IprAccess                    0      0.00%    100.00% # attempts to use FU when none available (Count)
system.cpu.statFuBusy::InstPrefetch                 0      0.00%    100.00% # attempts to use FU when none available (Count)
system.cpu.statIssuedInstType_0::No_OpClass      1595006      1.68%      1.68% # Number of instructions issued per FU type, per thread (Count)
system.cpu.statIssuedInstType_0::IntAlu      55125047     58.01%     59.69% # Number of instructions issued per FU type, per thread (Count)
system.cpu.statIssuedInstType_0::IntMult         1932      0.00%     59.69% # Number of instructions issued per FU type, per thread (Count)
system.cpu.statIssuedInstType_0::IntDiv         37385      0.04%     59.73% # Number of instructions issued per FU type, per thread (Count)
system.cpu.statIssuedInstType_0::FloatAdd      2104441      2.21%     61.95% # Number of instructions issued per FU type, per thread (Count)
system.cpu.statIssuedInstType_0::FloatCmp            0      0.00%     61.95% # Number of instructions issued per FU type, per thread (Count)
system.cpu.statIssuedInstType_0::FloatCvt       262432      0.28%     62.23% # Number of instructions issued per FU type, per thread (Count)
system.cpu.statIssuedInstType_0::FloatMult       262144      0.28%     62.50% # Number of instructions issued per FU type, per thread (Count)
system.cpu.statIssuedInstType_0::FloatMultAcc            0      0.00%     62.50% # Number of instructions issued per FU type, per thread (Count)
system.cpu.statIssuedInstType_0::FloatDiv            0      0.00%     62.50% # Number of instructions issued per FU type, per thread (Count)
system.cpu.statIssuedInstType_0::FloatMisc            0      0.00%     62.50% # Number of instructions issued per FU type, per thread (Count)
system.cpu.statIssuedInstType_0::FloatSqrt            0      0.00%     62.50% # Number of instructions issued per FU type, per thread (Count)
system.cpu.statIssuedInstType_0::SimdAdd         7061      0.01%     62.51% # Number of instructions issued per FU type, per thread (Count)
system.cpu.statIssuedInstType_0::SimdAddAcc            0      0.00%     62.51% # Number of instructions issued per FU type, per thread (Count)
system.cpu.statIssuedInstType_0::SimdAlu       275488      0.29%     62.80% # Number of instructions issued per FU type, per thread (Count)
system.cpu.statIssuedInstType_0::SimdCmp            0      0.00%     62.80% # Number of instructions issued per FU type, per thread (Count)
system.cpu.statIssuedInstType_0::SimdCvt        14947      0.02%     62.81% # Number of instructions issued per FU type, per thread (Count)
system.cpu.statIssuedInstType_0::SimdMisc       406484      0.43%     63.24% # Number of instructions issued per FU type, per thread (Count)
system.cpu.statIssuedInstType_0::SimdMult            0      0.00%     63.24% # Number of instructions issued per FU type, per thread (Count)
system.cpu.statIssuedInstType_0::SimdMultAcc            0      0.00%     63.24% # Number of instructions issued per FU type, per thread (Count)
system.cpu.statIssuedInstType_0::SimdShift         1063      0.00%     63.24% # Number of instructions issued per FU type, per thread (Count)
system.cpu.statIssuedInstType_0::SimdShiftAcc            0      0.00%     63.24% # Number of instructions issued per FU type, per thread (Count)
system.cpu.statIssuedInstType_0::SimdDiv            0      0.00%     63.24% # Number of instructions issued per FU type, per thread (Count)
system.cpu.statIssuedInstType_0::SimdSqrt            0      0.00%     63.24% # Number of instructions issued per FU type, per thread (Count)
system.cpu.statIssuedInstType_0::SimdFloatAdd       655371      0.69%     63.93% # Number of instructions issued per FU type, per thread (Count)
system.cpu.statIssuedInstType_0::SimdFloatAlu            0      0.00%     63.93% # Number of instructions issued per FU type, per thread (Count)
system.cpu.statIssuedInstType_0::SimdFloatCmp            0      0.00%     63.93% # Number of instructions issued per FU type, per thread (Count)
system.cpu.statIssuedInstType_0::SimdFloatCvt       393273      0.41%     64.35% # Number of instructions issued per FU type, per thread (Count)
system.cpu.statIssuedInstType_0::SimdFloatDiv       131078      0.14%     64.48% # Number of instructions issued per FU type, per thread (Count)
system.cpu.statIssuedInstType_0::SimdFloatMisc            0      0.00%     64.48% # Number of instructions issued per FU type, per thread (Count)
system.cpu.statIssuedInstType_0::SimdFloatMult       458757      0.48%     64.97% # Number of instructions issued per FU type, per thread (Count)
system.cpu.statIssuedInstType_0::SimdFloatMultAcc            0      0.00%     64.97% # Number of instructions issued per FU type, per thread (Count)
system.cpu.statIssuedInstType_0::SimdFloatSqrt            0      0.00%     64.97% # Number of instructions issued per FU type, per thread (Count)
system.cpu.statIssuedInstType_0::SimdReduceAdd            0      0.00%     64.97% # Number of instructions issued per FU type, per thread (Count)
system.cpu.statIssuedInstType_0::SimdReduceAlu            0      0.00%     64.97% # Number of instructions issued per FU type, per thread (Count)
system.cpu.statIssuedInstType_0::SimdReduceCmp            0      0.00%     64.97% # Number of instructions issued per FU type, per thread (Count)
system.cpu.statIssuedInstType_0::SimdFloatReduceAdd            0      0.00%     64.97% # Number of instructions issued per FU type, per thread (Count)
system.cpu.statIssuedInstType_0::SimdFloatReduceCmp            0      0.00%     64.97% # Number of instructions issued per FU type, per thread (Count)
system.cpu.statIssuedInstType_0::SimdAes            0      0.00%     64.97% # Number of instructions issued per FU type, per thread (Count)
system.cpu.statIssuedInstType_0::SimdAesMix            0      0.00%     64.97% # Number of instructions issued per FU type, per thread (Count)
system.cpu.statIssuedInstType_0::SimdSha1Hash            0      0.00%     64.97% # Number of instructions issued per FU type, per thread (Count)
system.cpu.statIssuedInstType_0::SimdSha1Hash2            0      0.00%     64.97% # Number of instructions issued per FU type, per thread (Count)
system.cpu.statIssuedInstType_0::SimdSha256Hash            0      0.00%     64.97% # Number of instructions issued per FU type, per thread (Count)
system.cpu.statIssuedInstType_0::SimdSha256Hash2            0      0.00%     64.97% # Number of instructions issued per FU type, per thread (Count)
system.cpu.statIssuedInstType_0::SimdShaSigma2            0      0.00%     64.97% # Number of instructions issued per FU type, per thread (Count)
system.cpu.statIssuedInstType_0::SimdShaSigma3            0      0.00%     64.97% # Number of instructions issued per FU type, per thread (Count)
system.cpu.statIssuedInstType_0::SimdPredAlu            0      0.00%     64.97% # Number of instructions issued per FU type, per thread (Count)
system.cpu.statIssuedInstType_0::MemRead     19403206     20.42%     85.39% # Number of instructions issued per FU type, per thread (Count)
system.cpu.statIssuedInstType_0::MemWrite      9724482     10.23%     95.62% # Number of instructions issued per FU type, per thread (Count)
system.cpu.statIssuedInstType_0::FloatMemRead      2706188      2.85%     98.47% # Number of instructions issued per FU type, per thread (Count)
system.cpu.statIssuedInstType_0::FloatMemWrite      1454269      1.53%    100.00% # Number of instructions issued per FU type, per thread (Count)
system.cpu.statIssuedInstType_0::IprAccess            0      0.00%    100.00% # Number of instructions issued per FU type, per thread (Count)
system.cpu.statIssuedInstType_0::InstPrefetch            0      0.00%    100.00% # Number of instructions issued per FU type, per thread (Count)
system.cpu.statIssuedInstType_0::total       95020054                       # Number of instructions issued per FU type, per thread (Count)
system.cpu.issueRate                         1.683136                       # Inst issue rate ((Count/Cycle))
system.cpu.fuBusy                              326101                       # FU busy when requested (Count)
system.cpu.fuBusyRate                        0.003432                       # FU busy rate (busy events/executed inst) ((Count/Count))
system.cpu.intInstQueueReads                226089858                       # Number of integer instruction queue reads (Count)
system.cpu.intInstQueueWrites               100501541                       # Number of integer instruction queue writes (Count)
system.cpu.intInstQueueWakeupAccesses        84033937                       # Number of integer instruction queue wakeup accesses (Count)
system.cpu.fpInstQueueReads                  20633633                       # Number of floating instruction queue reads (Count)
system.cpu.fpInstQueueWrites                 10357647                       # Number of floating instruction queue writes (Count)
system.cpu.fpInstQueueWakeupAccesses         10312980                       # Number of floating instruction queue wakeup accesses (Count)
system.cpu.vecInstQueueReads                        0                       # Number of vector instruction queue reads (Count)
system.cpu.vecInstQueueWrites                       0                       # Number of vector instruction queue writes (Count)
system.cpu.vecInstQueueWakeupAccesses               0                       # Number of vector instruction queue wakeup accesses (Count)
system.cpu.intAluAccesses                    83433662                       # Number of integer alu accesses (Count)
system.cpu.fpAluAccesses                     10317487                       # Number of floating point alu accesses (Count)
system.cpu.vecAluAccesses                           0                       # Number of vector alu accesses (Count)
system.cpu.idleCycles                               0                       # Number of cycles IEW is idle (Cycle)
system.cpu.squashCycles                        149849                       # Number of cycles IEW is squashing (Cycle)
system.cpu.blockCycles                        1881069                       # Number of cycles IEW is blocking (Cycle)
system.cpu.unblockCycles                        21980                       # Number of cycles IEW is unblocking (Cycle)
system.cpu.dispatchedInsts                   98678511                       # Number of instructions dispatched to IQ (Count)
system.cpu.dispSquashedInsts                      564                       # Number of squashed instructions skipped by dispatch (Count)
system.cpu.dispLoadInsts                     22845091                       # Number of dispatched load instructions (Count)
system.cpu.dispStoreInsts                    11538557                       # Number of dispatched store instructions (Count)
system.cpu.dispNonSpecInsts                    917793                       # Number of dispatched non-speculative instructions (Count)
system.cpu.iqFullEvents                          9198                       # Number of times the IQ has become full, causing a stall (Count)
system.cpu.lsqFullEvents                         9340                       # Number of times the LSQ has become full, causing a stall (Count)
system.cpu.memOrderViolationEvents               3111                       # Number of memory order violations (Count)
system.cpu.predictedTakenIncorrect              72621                       # Number of branches that were predicted taken incorrectly (Count)
system.cpu.predictedNotTakenIncorrect           75953                       # Number of branches that were predicted not taken incorrectly (Count)
system.cpu.branchMispredicts                   148574                       # Number of branch mispredicts detected at execute (Count)
system.cpu.numInsts                          94581336                       # Number of executed instructions (Count)
system.cpu.numLoadInsts                      22010483                       # Number of load instructions executed (Count)
system.cpu.numSquashedInsts                    438718                       # Number of squashed instructions skipped in execute (Count)
system.cpu.numSwp                                   0                       # Number of swp insts executed (Count)
system.cpu.numNop                                   0                       # Number of nop insts executed (Count)
system.cpu.numRefs                           33051590                       # Number of memory reference insts executed (Count)
system.cpu.numBranches                        7109972                       # Number of branches executed (Count)
system.cpu.numStoreInsts                     11041107                       # Number of stores executed (Count)
system.cpu.numRate                           1.675365                       # Inst execution rate ((Count/Cycle))
system.cpu.instsToCommit                     94471838                       # Cumulative count of insts sent to commit (Count)
system.cpu.writebackCount                    94346917                       # Cumulative count of insts written-back (Count)
system.cpu.producerInst                      67983074                       # Number of instructions producing a value (Count)
system.cpu.consumerInst                     110539350                       # Number of instructions consuming a value (Count)
system.cpu.wbRate                            1.671212                       # Insts written-back per cycle ((Count/Cycle))
system.cpu.wbFanout                          0.615012                       # Average fanout of values written-back ((Count/Count))
system.cpu.timesIdled                            1527                       # Number of times that the entire CPU went into an idle state and unscheduled itself (Count)
system.cpu.idleCycles                          105895                       # Total number of cycles that the CPU has spent unscheduled due to idling (Cycle)
system.cpu.committedInsts                    48413712                       # Number of Instructions Simulated (Count)
system.cpu.committedOps                      86500844                       # Number of Ops (including micro ops) Simulated (Count)
system.cpu.cpi                               1.166078                       # CPI: Cycles Per Instruction ((Cycle/Count))
system.cpu.totalCpi                          1.166078                       # CPI: Total CPI of All Threads ((Cycle/Count))
system.cpu.ipc                               0.857575                       # IPC: Instructions Per Cycle ((Count/Cycle))
system.cpu.totalIpc                          0.857575                       # IPC: Total IPC of All Threads ((Count/Cycle))
system.cpu.intRegfileReads                  147715138                       # Number of integer regfile reads (Count)
system.cpu.intRegfileWrites                  65808971                       # Number of integer regfile writes (Count)
system.cpu.fpRegfileReads                    10154351                       # Number of floating regfile reads (Count)
system.cpu.fpRegfileWrites                    8327659                       # Number of floating regfile writes (Count)
system.cpu.ccRegfileReads                    19819327                       # number of cc regfile reads (Count)
system.cpu.ccRegfileWrites                   20165989                       # number of cc regfile writes (Count)
system.cpu.miscRegfileReads                  48457926                       # number of misc regfile reads (Count)
system.cpu.miscRegfileWrites                  1835170                       # number of misc regfile writes (Count)
system.cpu.MemDepUnit__0.insertedLoads       22845091                       # Number of loads inserted to the mem dependence unit. (Count)
system.cpu.MemDepUnit__0.insertedStores      11538557                       # Number of stores inserted to the mem dependence unit. (Count)
system.cpu.MemDepUnit__0.conflictingLoads      9789490                       # Number of conflicting loads. (Count)
system.cpu.MemDepUnit__0.conflictingStores      2203559                       # Number of conflicting stores. (Count)
system.cpu.MemDepUnit__1.insertedLoads              0                       # Number of loads inserted to the mem dependence unit. (Count)
system.cpu.MemDepUnit__1.insertedStores             0                       # Number of stores inserted to the mem dependence unit. (Count)
system.cpu.MemDepUnit__1.conflictingLoads            0                       # Number of conflicting loads. (Count)
system.cpu.MemDepUnit__1.conflictingStores            0                       # Number of conflicting stores. (Count)
system.cpu.MemDepUnit__2.insertedLoads              0                       # Number of loads inserted to the mem dependence unit. (Count)
system.cpu.MemDepUnit__2.insertedStores             0                       # Number of stores inserted to the mem dependence unit. (Count)
system.cpu.MemDepUnit__2.conflictingLoads            0                       # Number of conflicting loads. (Count)
system.cpu.MemDepUnit__2.conflictingStores            0                       # Number of conflicting stores. (Count)
system.cpu.MemDepUnit__3.insertedLoads              0                       # Number of loads inserted to the mem dependence unit. (Count)
system.cpu.MemDepUnit__3.insertedStores             0                       # Number of stores inserted to the mem dependence unit. (Count)
system.cpu.MemDepUnit__3.conflictingLoads            0                       # Number of conflicting loads. (Count)
system.cpu.MemDepUnit__3.conflictingStores            0                       # Number of conflicting stores. (Count)
system.cpu.branchPred.lookups                 7654645                       # Number of BP lookups (Count)
system.cpu.branchPred.condPredicted           2832128                       # Number of conditional branches predicted (Count)
system.cpu.branchPred.condIncorrect            146486                       # Number of conditional branches incorrect (Count)
system.cpu.branchPred.BTBLookups              4338233                       # Number of BTB lookups (Count)
system.cpu.branchPred.BTBHits                 4335491                       # Number of BTB hits (Count)
system.cpu.branchPred.BTBHitRatio            0.999368                       # BTB Hit Ratio (Ratio)
system.cpu.branchPred.RASUsed                 1592440                       # Number of times the RAS was used to get a target. (Count)
system.cpu.branchPred.RASIncorrect                 11                       # Number of incorrect RAS predictions. (Count)
system.cpu.branchPred.indirectLookups            6140                       # Number of indirect predictor lookups. (Count)
system.cpu.branchPred.indirectHits               4022                       # Number of indirect target hits. (Count)
system.cpu.branchPred.indirectMisses             2118                       # Number of indirect misses. (Count)
system.cpu.branchPred.indirectMispredicted          620                       # Number of mispredicted indirect branches. (Count)
system.cpu.commit.commitSquashedInsts        12173899                       # The number of squashed insts skipped by commit (Count)
system.cpu.commit.commitNonSpecStalls          917666                       # The number of times commit has been forced to stall to communicate backwards (Count)
system.cpu.commit.branchMispredicts            146472                       # The number of times a branch was mispredicted (Count)
system.cpu.commit.numCommittedDist::samples     54760585                       # Number of insts commited each cycle (Count)
system.cpu.commit.numCommittedDist::mean     1.579619                       # Number of insts commited each cycle (Count)
system.cpu.commit.numCommittedDist::stdev     2.394146                       # Number of insts commited each cycle (Count)
system.cpu.commit.numCommittedDist::underflows            0      0.00%      0.00% # Number of insts commited each cycle (Count)
system.cpu.commit.numCommittedDist::0        26573872     48.53%     48.53% # Number of insts commited each cycle (Count)
system.cpu.commit.numCommittedDist::1        11985797     21.89%     70.42% # Number of insts commited each cycle (Count)
system.cpu.commit.numCommittedDist::2         4423939      8.08%     78.49% # Number of insts commited each cycle (Count)
system.cpu.commit.numCommittedDist::3         3717996      6.79%     85.28% # Number of insts commited each cycle (Count)
system.cpu.commit.numCommittedDist::4         1016541      1.86%     87.14% # Number of insts commited each cycle (Count)
system.cpu.commit.numCommittedDist::5         1298019      2.37%     89.51% # Number of insts commited each cycle (Count)
system.cpu.commit.numCommittedDist::6          498839      0.91%     90.42% # Number of insts commited each cycle (Count)
system.cpu.commit.numCommittedDist::7         1000768      1.83%     92.25% # Number of insts commited each cycle (Count)
system.cpu.commit.numCommittedDist::8         4244814      7.75%    100.00% # Number of insts commited each cycle (Count)
system.cpu.commit.numCommittedDist::overflows            0      0.00%    100.00% # Number of insts commited each cycle (Count)
system.cpu.commit.numCommittedDist::min_value            0                       # Number of insts commited each cycle (Count)
system.cpu.commit.numCommittedDist::max_value            8                       # Number of insts commited each cycle (Count)
system.cpu.commit.numCommittedDist::total     54760585                       # Number of insts commited each cycle (Count)
system.cpu.commit.instsCommitted             48413712                       # Number of instructions committed (Count)
system.cpu.commit.opsCommitted               86500844                       # Number of ops (including micro ops) committed (Count)
system.cpu.commit.memRefs                    30064869                       # Number of memory references committed (Count)
system.cpu.commit.loads                      19316023                       # Number of loads committed (Count)
system.cpu.commit.amos                              0                       # Number of atomic instructions committed (Count)
system.cpu.commit.membars                           0                       # Number of memory barriers committed (Count)
system.cpu.commit.branches                    6508487                       # Number of branches committed (Count)
system.cpu.commit.vectorInstructions                0                       # Number of committed Vector instructions. (Count)
system.cpu.commit.floating                   10299427                       # Number of committed floating point instructions. (Count)
system.cpu.commit.integer                    79290112                       # Number of committed integer instructions. (Count)
system.cpu.commit.functionCalls               1585659                       # Number of function calls committed. (Count)
system.cpu.commit.committedInstType_0::No_OpClass      1587380      1.84%      1.84% # Class of committed instruction (Count)
system.cpu.commit.committedInstType_0::IntAlu     49848428     57.63%     59.46% # Class of committed instruction (Count)
system.cpu.commit.committedInstType_0::IntMult         1915      0.00%     59.46% # Class of committed instruction (Count)
system.cpu.commit.committedInstType_0::IntDiv        35091      0.04%     59.51% # Class of committed instruction (Count)
system.cpu.commit.committedInstType_0::FloatAdd      2102037      2.43%     61.94% # Class of committed instruction (Count)
system.cpu.commit.committedInstType_0::FloatCmp            0      0.00%     61.94% # Class of committed instruction (Count)
system.cpu.commit.committedInstType_0::FloatCvt       262432      0.30%     62.24% # Class of committed instruction (Count)
system.cpu.commit.committedInstType_0::FloatMult       262144      0.30%     62.54% # Class of committed instruction (Count)
system.cpu.commit.committedInstType_0::FloatMultAcc            0      0.00%     62.54% # Class of committed instruction (Count)
system.cpu.commit.committedInstType_0::FloatDiv            0      0.00%     62.54% # Class of committed instruction (Count)
system.cpu.commit.committedInstType_0::FloatMisc            0      0.00%     62.54% # Class of committed instruction (Count)
system.cpu.commit.committedInstType_0::FloatSqrt            0      0.00%     62.54% # Class of committed instruction (Count)
system.cpu.commit.committedInstType_0::SimdAdd         6484      0.01%     62.55% # Class of committed instruction (Count)
system.cpu.commit.committedInstType_0::SimdAddAcc            0      0.00%     62.55% # Class of committed instruction (Count)
system.cpu.commit.committedInstType_0::SimdAlu       273297      0.32%     62.87% # Class of committed instruction (Count)
system.cpu.commit.committedInstType_0::SimdCmp            0      0.00%     62.87% # Class of committed instruction (Count)
system.cpu.commit.committedInstType_0::SimdCvt        13148      0.02%     62.88% # Class of committed instruction (Count)
system.cpu.commit.committedInstType_0::SimdMisc       404764      0.47%     63.35% # Class of committed instruction (Count)
system.cpu.commit.committedInstType_0::SimdMult            0      0.00%     63.35% # Class of committed instruction (Count)
system.cpu.commit.committedInstType_0::SimdMultAcc            0      0.00%     63.35% # Class of committed instruction (Count)
system.cpu.commit.committedInstType_0::SimdShift          453      0.00%     63.35% # Class of committed instruction (Count)
system.cpu.commit.committedInstType_0::SimdShiftAcc            0      0.00%     63.35% # Class of committed instruction (Count)
system.cpu.commit.committedInstType_0::SimdDiv            0      0.00%     63.35% # Class of committed instruction (Count)
system.cpu.commit.committedInstType_0::SimdSqrt            0      0.00%     63.35% # Class of committed instruction (Count)
system.cpu.commit.committedInstType_0::SimdFloatAdd       655360      0.76%     64.11% # Class of committed instruction (Count)
system.cpu.commit.committedInstType_0::SimdFloatAlu            0      0.00%     64.11% # Class of committed instruction (Count)
system.cpu.commit.committedInstType_0::SimdFloatCmp            0      0.00%     64.11% # Class of committed instruction (Count)
system.cpu.commit.committedInstType_0::SimdFloatCvt       393218      0.45%     64.56% # Class of committed instruction (Count)
system.cpu.commit.committedInstType_0::SimdFloatDiv       131072      0.15%     64.71% # Class of committed instruction (Count)
system.cpu.commit.committedInstType_0::SimdFloatMisc            0      0.00%     64.71% # Class of committed instruction (Count)
system.cpu.commit.committedInstType_0::SimdFloatMult       458752      0.53%     65.24% # Class of committed instruction (Count)
system.cpu.commit.committedInstType_0::SimdFloatMultAcc            0      0.00%     65.24% # Class of committed instruction (Count)
system.cpu.commit.committedInstType_0::SimdFloatSqrt            0      0.00%     65.24% # Class of committed instruction (Count)
system.cpu.commit.committedInstType_0::SimdReduceAdd            0      0.00%     65.24% # Class of committed instruction (Count)
system.cpu.commit.committedInstType_0::SimdReduceAlu            0      0.00%     65.24% # Class of committed instruction (Count)
system.cpu.commit.committedInstType_0::SimdReduceCmp            0      0.00%     65.24% # Class of committed instruction (Count)
system.cpu.commit.committedInstType_0::SimdFloatReduceAdd            0      0.00%     65.24% # Class of committed instruction (Count)
system.cpu.commit.committedInstType_0::SimdFloatReduceCmp            0      0.00%     65.24% # Class of committed instruction (Count)
system.cpu.commit.committedInstType_0::SimdAes            0      0.00%     65.24% # Class of committed instruction (Count)
system.cpu.commit.committedInstType_0::SimdAesMix            0      0.00%     65.24% # Class of committed instruction (Count)
system.cpu.commit.committedInstType_0::SimdSha1Hash            0      0.00%     65.24% # Class of committed instruction (Count)
system.cpu.commit.committedInstType_0::SimdSha1Hash2            0      0.00%     65.24% # Class of committed instruction (Count)
system.cpu.commit.committedInstType_0::SimdSha256Hash            0      0.00%     65.24% # Class of committed instruction (Count)
system.cpu.commit.committedInstType_0::SimdSha256Hash2            0      0.00%     65.24% # Class of committed instruction (Count)
system.cpu.commit.committedInstType_0::SimdShaSigma2            0      0.00%     65.24% # Class of committed instruction (Count)
system.cpu.commit.committedInstType_0::SimdShaSigma3            0      0.00%     65.24% # Class of committed instruction (Count)
system.cpu.commit.committedInstType_0::SimdPredAlu            0      0.00%     65.24% # Class of committed instruction (Count)
system.cpu.commit.committedInstType_0::MemRead     16614820     19.21%     84.45% # Class of committed instruction (Count)
system.cpu.commit.committedInstType_0::MemWrite      9295996     10.75%     95.20% # Class of committed instruction (Count)
system.cpu.commit.committedInstType_0::FloatMemRead      2701203      3.12%     98.32% # Class of committed instruction (Count)
system.cpu.commit.committedInstType_0::FloatMemWrite      1452850      1.68%    100.00% # Class of committed instruction (Count)
system.cpu.commit.committedInstType_0::IprAccess            0      0.00%    100.00% # Class of committed instruction (Count)
system.cpu.commit.committedInstType_0::InstPrefetch            0      0.00%    100.00% # Class of committed instruction (Count)
system.cpu.commit.committedInstType_0::total     86500844                       # Class of committed instruction (Count)
system.cpu.commit.commitEligibleSamples       4244814                       # number cycles where commit BW limit reached (Cycle)
system.cpu.dcache.demandHits::cpu.data       21146903                       # number of demand (read+write) hits (Count)
system.cpu.dcache.demandHits::total          21146903                       # number of demand (read+write) hits (Count)
system.cpu.dcache.overallHits::cpu.data      21146903                       # number of overall hits (Count)
system.cpu.dcache.overallHits::total         21146903                       # number of overall hits (Count)
system.cpu.dcache.demandMisses::cpu.data       194025                       # number of demand (read+write) misses (Count)
system.cpu.dcache.demandMisses::total          194025                       # number of demand (read+write) misses (Count)
system.cpu.dcache.overallMisses::cpu.data       194025                       # number of overall misses (Count)
system.cpu.dcache.overallMisses::total         194025                       # number of overall misses (Count)
system.cpu.dcache.demandMissLatency::cpu.data  19742355996                       # number of demand (read+write) miss ticks (Tick)
system.cpu.dcache.demandMissLatency::total  19742355996                       # number of demand (read+write) miss ticks (Tick)
system.cpu.dcache.overallMissLatency::cpu.data  19742355996                       # number of overall miss ticks (Tick)
system.cpu.dcache.overallMissLatency::total  19742355996                       # number of overall miss ticks (Tick)
system.cpu.dcache.demandAccesses::cpu.data     21340928                       # number of demand (read+write) accesses (Count)
system.cpu.dcache.demandAccesses::total      21340928                       # number of demand (read+write) accesses (Count)
system.cpu.dcache.overallAccesses::cpu.data     21340928                       # number of overall (read+write) accesses (Count)
system.cpu.dcache.overallAccesses::total     21340928                       # number of overall (read+write) accesses (Count)
system.cpu.dcache.demandMissRate::cpu.data     0.009092                       # miss rate for demand accesses (Ratio)
system.cpu.dcache.demandMissRate::total      0.009092                       # miss rate for demand accesses (Ratio)
system.cpu.dcache.overallMissRate::cpu.data     0.009092                       # miss rate for overall accesses (Ratio)
system.cpu.dcache.overallMissRate::total     0.009092                       # miss rate for overall accesses (Ratio)
system.cpu.dcache.demandAvgMissLatency::cpu.data 101751.609308                       # average overall miss latency ((Cycle/Count))
system.cpu.dcache.demandAvgMissLatency::total 101751.609308                       # average overall miss latency ((Cycle/Count))
system.cpu.dcache.overallAvgMissLatency::cpu.data 101751.609308                       # average overall miss latency ((Cycle/Count))
system.cpu.dcache.overallAvgMissLatency::total 101751.609308                       # average overall miss latency ((Cycle/Count))
system.cpu.dcache.blockedCycles::no_mshrs        19886                       # number of cycles access was blocked (Cycle)
system.cpu.dcache.blockedCycles::no_targets          166                       # number of cycles access was blocked (Cycle)
system.cpu.dcache.blockedCauses::no_mshrs          632                       # number of times access was blocked (Count)
system.cpu.dcache.blockedCauses::no_targets            2                       # number of times access was blocked (Count)
system.cpu.dcache.avgBlocked::no_mshrs      31.465190                       # average number of cycles each access was blocked ((Cycle/Count))
system.cpu.dcache.avgBlocked::no_targets           83                       # average number of cycles each access was blocked ((Cycle/Count))
system.cpu.dcache.writebacks::writebacks        59513                       # number of writebacks (Count)
system.cpu.dcache.writebacks::total             59513                       # number of writebacks (Count)
system.cpu.dcache.demandMshrHits::cpu.data       124625                       # number of demand (read+write) MSHR hits (Count)
system.cpu.dcache.demandMshrHits::total        124625                       # number of demand (read+write) MSHR hits (Count)
system.cpu.dcache.overallMshrHits::cpu.data       124625                       # number of overall MSHR hits (Count)
system.cpu.dcache.overallMshrHits::total       124625                       # number of overall MSHR hits (Count)
system.cpu.dcache.demandMshrMisses::cpu.data        69400                       # number of demand (read+write) MSHR misses (Count)
system.cpu.dcache.demandMshrMisses::total        69400                       # number of demand (read+write) MSHR misses (Count)
system.cpu.dcache.overallMshrMisses::cpu.data        69400                       # number of overall MSHR misses (Count)
system.cpu.dcache.overallMshrMisses::total        69400                       # number of overall MSHR misses (Count)
system.cpu.dcache.demandMshrMissLatency::cpu.data   7277510996                       # number of demand (read+write) MSHR miss ticks (Tick)
system.cpu.dcache.demandMshrMissLatency::total   7277510996                       # number of demand (read+write) MSHR miss ticks (Tick)
system.cpu.dcache.overallMshrMissLatency::cpu.data   7277510996                       # number of overall MSHR miss ticks (Tick)
system.cpu.dcache.overallMshrMissLatency::total   7277510996                       # number of overall MSHR miss ticks (Tick)
system.cpu.dcache.demandMshrMissRate::cpu.data     0.003252                       # mshr miss ratio for demand accesses (Ratio)
system.cpu.dcache.demandMshrMissRate::total     0.003252                       # mshr miss ratio for demand accesses (Ratio)
system.cpu.dcache.overallMshrMissRate::cpu.data     0.003252                       # mshr miss ratio for overall accesses (Ratio)
system.cpu.dcache.overallMshrMissRate::total     0.003252                       # mshr miss ratio for overall accesses (Ratio)
system.cpu.dcache.demandAvgMshrMissLatency::cpu.data 104863.270836                       # average overall mshr miss latency ((Cycle/Count))
system.cpu.dcache.demandAvgMshrMissLatency::total 104863.270836                       # average overall mshr miss latency ((Cycle/Count))
system.cpu.dcache.overallAvgMshrMissLatency::cpu.data 104863.270836                       # average overall mshr miss latency ((Cycle/Count))
system.cpu.dcache.overallAvgMshrMissLatency::total 104863.270836                       # average overall mshr miss latency ((Cycle/Count))
system.cpu.dcache.replacements                  59512                       # number of replacements (Count)
system.cpu.dcache.ReadReq.hits::cpu.data     10428287                       # number of ReadReq hits (Count)
system.cpu.dcache.ReadReq.hits::total        10428287                       # number of ReadReq hits (Count)
system.cpu.dcache.ReadReq.misses::cpu.data       163792                       # number of ReadReq misses (Count)
system.cpu.dcache.ReadReq.misses::total        163792                       # number of ReadReq misses (Count)
system.cpu.dcache.ReadReq.missLatency::cpu.data  16935748000                       # number of ReadReq miss ticks (Tick)
system.cpu.dcache.ReadReq.missLatency::total  16935748000                       # number of ReadReq miss ticks (Tick)
system.cpu.dcache.ReadReq.accesses::cpu.data     10592079                       # number of ReadReq accesses(hits+misses) (Count)
system.cpu.dcache.ReadReq.accesses::total     10592079                       # number of ReadReq accesses(hits+misses) (Count)
system.cpu.dcache.ReadReq.missRate::cpu.data     0.015464                       # miss rate for ReadReq accesses (Ratio)
system.cpu.dcache.ReadReq.missRate::total     0.015464                       # miss rate for ReadReq accesses (Ratio)
system.cpu.dcache.ReadReq.avgMissLatency::cpu.data 103397.894891                       # average ReadReq miss latency ((Tick/Count))
system.cpu.dcache.ReadReq.avgMissLatency::total 103397.894891                       # average ReadReq miss latency ((Tick/Count))
system.cpu.dcache.ReadReq.mshrHits::cpu.data       124618                       # number of ReadReq MSHR hits (Count)
system.cpu.dcache.ReadReq.mshrHits::total       124618                       # number of ReadReq MSHR hits (Count)
system.cpu.dcache.ReadReq.mshrMisses::cpu.data        39174                       # number of ReadReq MSHR misses (Count)
system.cpu.dcache.ReadReq.mshrMisses::total        39174                       # number of ReadReq MSHR misses (Count)
system.cpu.dcache.ReadReq.mshrMissLatency::cpu.data   4531369000                       # number of ReadReq MSHR miss ticks (Tick)
system.cpu.dcache.ReadReq.mshrMissLatency::total   4531369000                       # number of ReadReq MSHR miss ticks (Tick)
system.cpu.dcache.ReadReq.mshrMissRate::cpu.data     0.003698                       # mshr miss rate for ReadReq accesses (Ratio)
system.cpu.dcache.ReadReq.mshrMissRate::total     0.003698                       # mshr miss rate for ReadReq accesses (Ratio)
system.cpu.dcache.ReadReq.avgMshrMissLatency::cpu.data 115672.869761                       # average ReadReq mshr miss latency ((Tick/Count))
system.cpu.dcache.ReadReq.avgMshrMissLatency::total 115672.869761                       # average ReadReq mshr miss latency ((Tick/Count))
system.cpu.dcache.WriteReq.hits::cpu.data     10718616                       # number of WriteReq hits (Count)
system.cpu.dcache.WriteReq.hits::total       10718616                       # number of WriteReq hits (Count)
system.cpu.dcache.WriteReq.misses::cpu.data        30233                       # number of WriteReq misses (Count)
system.cpu.dcache.WriteReq.misses::total        30233                       # number of WriteReq misses (Count)
system.cpu.dcache.WriteReq.missLatency::cpu.data   2806607996                       # number of WriteReq miss ticks (Tick)
system.cpu.dcache.WriteReq.missLatency::total   2806607996                       # number of WriteReq miss ticks (Tick)
system.cpu.dcache.WriteReq.accesses::cpu.data     10748849                       # number of WriteReq accesses(hits+misses) (Count)
system.cpu.dcache.WriteReq.accesses::total     10748849                       # number of WriteReq accesses(hits+misses) (Count)
system.cpu.dcache.WriteReq.missRate::cpu.data     0.002813                       # miss rate for WriteReq accesses (Ratio)
system.cpu.dcache.WriteReq.missRate::total     0.002813                       # miss rate for WriteReq accesses (Ratio)
system.cpu.dcache.WriteReq.avgMissLatency::cpu.data 92832.600007                       # average WriteReq miss latency ((Tick/Count))
system.cpu.dcache.WriteReq.avgMissLatency::total 92832.600007                       # average WriteReq miss latency ((Tick/Count))
system.cpu.dcache.WriteReq.mshrHits::cpu.data            7                       # number of WriteReq MSHR hits (Count)
system.cpu.dcache.WriteReq.mshrHits::total            7                       # number of WriteReq MSHR hits (Count)
system.cpu.dcache.WriteReq.mshrMisses::cpu.data        30226                       # number of WriteReq MSHR misses (Count)
system.cpu.dcache.WriteReq.mshrMisses::total        30226                       # number of WriteReq MSHR misses (Count)
system.cpu.dcache.WriteReq.mshrMissLatency::cpu.data   2746141996                       # number of WriteReq MSHR miss ticks (Tick)
system.cpu.dcache.WriteReq.mshrMissLatency::total   2746141996                       # number of WriteReq MSHR miss ticks (Tick)
system.cpu.dcache.WriteReq.mshrMissRate::cpu.data     0.002812                       # mshr miss rate for WriteReq accesses (Ratio)
system.cpu.dcache.WriteReq.mshrMissRate::total     0.002812                       # mshr miss rate for WriteReq accesses (Ratio)
system.cpu.dcache.WriteReq.avgMshrMissLatency::cpu.data 90853.635810                       # average WriteReq mshr miss latency ((Tick/Count))
system.cpu.dcache.WriteReq.avgMshrMissLatency::total 90853.635810                       # average WriteReq mshr miss latency ((Tick/Count))
system.cpu.dcache.power_state.pwrStateResidencyTicks::UNDEFINED  56454180000                       # Cumulative time (in ticks) in various power states (Tick)
system.cpu.dcache.tags.tagsInUse          1022.049647                       # Average ticks per tags in use ((Tick/Count))
system.cpu.dcache.tags.totalRefs             21224653                       # Total number of references to valid blocks. (Count)
system.cpu.dcache.tags.sampledRefs              60536                       # Sample count of references to valid blocks. (Count)
system.cpu.dcache.tags.avgRefs             350.612082                       # Average number of references to valid blocks. ((Count/Count))
system.cpu.dcache.tags.warmupTick              231000                       # The tick when the warmup percentage was hit. (Tick)
system.cpu.dcache.tags.occupancies::cpu.data  1022.049647                       # Average occupied blocks per tick, per requestor ((Count/Tick))
system.cpu.dcache.tags.avgOccs::cpu.data     0.998095                       # Average percentage of cache occupancy ((Ratio/Tick))
system.cpu.dcache.tags.avgOccs::total        0.998095                       # Average percentage of cache occupancy ((Ratio/Tick))
system.cpu.dcache.tags.occupanciesTaskId::1024         1024                       # Occupied blocks per task id (Count)
system.cpu.dcache.tags.ageTaskId_1024::0           52                       # Occupied blocks per task id, per block age (Count)
system.cpu.dcache.tags.ageTaskId_1024::1          534                       # Occupied blocks per task id, per block age (Count)
system.cpu.dcache.tags.ageTaskId_1024::2          436                       # Occupied blocks per task id, per block age (Count)
system.cpu.dcache.tags.ageTaskId_1024::3            2                       # Occupied blocks per task id, per block age (Count)
system.cpu.dcache.tags.ratioOccsTaskId::1024            1                       # Ratio of occupied blocks and all blocks, per task id (Ratio)
system.cpu.dcache.tags.tagAccesses           42742392                       # Number of tag accesses (Count)
system.cpu.dcache.tags.dataAccesses          42742392                       # Number of data accesses (Count)
system.cpu.dcache.tags.power_state.pwrStateResidencyTicks::UNDEFINED  56454180000                       # Cumulative time (in ticks) in various power states (Tick)
system.cpu.decode.idleCycles                  6261372                       # Number of cycles decode is idle (Cycle)
system.cpu.decode.blockedCycles              34798453                       # Number of cycles decode is blocked (Cycle)
system.cpu.decode.runCycles                  14241927                       # Number of cycles decode is running (Cycle)
system.cpu.decode.unblockCycles                896685                       # Number of cycles decode is unblocking (Cycle)
system.cpu.decode.squashCycles                 149849                       # Number of cycles decode is squashing (Cycle)
system.cpu.decode.branchResolved              4274970                       # Number of times decode resolved a branch (Count)
system.cpu.decode.branchMispred                   791                       # Number of times decode detected a branch misprediction (Count)
system.cpu.decode.decodedInsts              100658778                       # Number of instructions handled by decode (Count)
system.cpu.decode.squashedInsts                  3580                       # Number of squashed instructions handled by decode (Count)
system.cpu.fetch.icacheStallCycles            8456504                       # Number of cycles fetch is stalled on an Icache miss (Cycle)
system.cpu.fetch.insts                       58748773                       # Number of instructions fetch has processed (Count)
system.cpu.fetch.branches                     7654645                       # Number of branches that fetch encountered (Count)
system.cpu.fetch.predictedBranches            5931953                       # Number of branches that fetch has predicted taken (Count)
system.cpu.fetch.cycles                      47734468                       # Number of cycles fetch has run and was not squashing or blocked (Cycle)
system.cpu.fetch.squashCycles                  301234                       # Number of cycles fetch has spent squashing (Cycle)
system.cpu.fetch.miscStallCycles                  799                       # Number of cycles fetch has spent waiting on interrupts, or bad addresses, or out of MSHRs (Cycle)
system.cpu.fetch.pendingTrapStallCycles          5650                       # Number of stall cycles due to pending traps (Cycle)
system.cpu.fetch.pendingQuiesceStallCycles          246                       # Number of stall cycles due to pending quiesce instructions (Cycle)
system.cpu.fetch.icacheWaitRetryStallCycles            2                       # Number of stall cycles due to full MSHR (Cycle)
system.cpu.fetch.cacheLines                   8345976                       # Number of cache lines fetched (Count)
system.cpu.fetch.icacheSquashes                 49992                       # Number of outstanding Icache misses that were squashed (Count)
system.cpu.fetch.nisnDist::samples           56348286                       # Number of instructions fetched each cycle (Total) (Count)
system.cpu.fetch.nisnDist::mean              1.807238                       # Number of instructions fetched each cycle (Total) (Count)
system.cpu.fetch.nisnDist::stdev             3.067969                       # Number of instructions fetched each cycle (Total) (Count)
system.cpu.fetch.nisnDist::underflows               0      0.00%      0.00% # Number of instructions fetched each cycle (Total) (Count)
system.cpu.fetch.nisnDist::0                 39749180     70.54%     70.54% # Number of instructions fetched each cycle (Total) (Count)
system.cpu.fetch.nisnDist::1                   990142      1.76%     72.30% # Number of instructions fetched each cycle (Total) (Count)
system.cpu.fetch.nisnDist::2                   800869      1.42%     73.72% # Number of instructions fetched each cycle (Total) (Count)
system.cpu.fetch.nisnDist::3                  1225419      2.17%     75.90% # Number of instructions fetched each cycle (Total) (Count)
system.cpu.fetch.nisnDist::4                  1490010      2.64%     78.54% # Number of instructions fetched each cycle (Total) (Count)
system.cpu.fetch.nisnDist::5                   847975      1.50%     80.04% # Number of instructions fetched each cycle (Total) (Count)
system.cpu.fetch.nisnDist::6                  1677126      2.98%     83.02% # Number of instructions fetched each cycle (Total) (Count)
system.cpu.fetch.nisnDist::7                  1236552      2.19%     85.22% # Number of instructions fetched each cycle (Total) (Count)
system.cpu.fetch.nisnDist::8                  8331013     14.78%    100.00% # Number of instructions fetched each cycle (Total) (Count)
system.cpu.fetch.nisnDist::overflows                0      0.00%    100.00% # Number of instructions fetched each cycle (Total) (Count)
system.cpu.fetch.nisnDist::min_value                0                       # Number of instructions fetched each cycle (Total) (Count)
system.cpu.fetch.nisnDist::max_value                8                       # Number of instructions fetched each cycle (Total) (Count)
system.cpu.fetch.nisnDist::total             56348286                       # Number of instructions fetched each cycle (Total) (Count)
system.cpu.fetch.branchRate                  0.135590                       # Number of branch fetches per cycle (Ratio)
system.cpu.fetch.rate                        1.040645                       # Number of inst fetches per cycle ((Count/Cycle))
system.cpu.icache.demandHits::cpu.inst        8342905                       # number of demand (read+write) hits (Count)
system.cpu.icache.demandHits::total           8342905                       # number of demand (read+write) hits (Count)
system.cpu.icache.overallHits::cpu.inst       8342905                       # number of overall hits (Count)
system.cpu.icache.overallHits::total          8342905                       # number of overall hits (Count)
system.cpu.icache.demandMisses::cpu.inst         3071                       # number of demand (read+write) misses (Count)
system.cpu.icache.demandMisses::total            3071                       # number of demand (read+write) misses (Count)
system.cpu.icache.overallMisses::cpu.inst         3071                       # number of overall misses (Count)
system.cpu.icache.overallMisses::total           3071                       # number of overall misses (Count)
system.cpu.icache.demandMissLatency::cpu.inst    305154999                       # number of demand (read+write) miss ticks (Tick)
system.cpu.icache.demandMissLatency::total    305154999                       # number of demand (read+write) miss ticks (Tick)
system.cpu.icache.overallMissLatency::cpu.inst    305154999                       # number of overall miss ticks (Tick)
system.cpu.icache.overallMissLatency::total    305154999                       # number of overall miss ticks (Tick)
system.cpu.icache.demandAccesses::cpu.inst      8345976                       # number of demand (read+write) accesses (Count)
system.cpu.icache.demandAccesses::total       8345976                       # number of demand (read+write) accesses (Count)
system.cpu.icache.overallAccesses::cpu.inst      8345976                       # number of overall (read+write) accesses (Count)
system.cpu.icache.overallAccesses::total      8345976                       # number of overall (read+write) accesses (Count)
system.cpu.icache.demandMissRate::cpu.inst     0.000368                       # miss rate for demand accesses (Ratio)
system.cpu.icache.demandMissRate::total      0.000368                       # miss rate for demand accesses (Ratio)
system.cpu.icache.overallMissRate::cpu.inst     0.000368                       # miss rate for overall accesses (Ratio)
system.cpu.icache.overallMissRate::total     0.000368                       # miss rate for overall accesses (Ratio)
system.cpu.icache.demandAvgMissLatency::cpu.inst 99366.655487                       # average overall miss latency ((Cycle/Count))
system.cpu.icache.demandAvgMissLatency::total 99366.655487                       # average overall miss latency ((Cycle/Count))
system.cpu.icache.overallAvgMissLatency::cpu.inst 99366.655487                       # average overall miss latency ((Cycle/Count))
system.cpu.icache.overallAvgMissLatency::total 99366.655487                       # average overall miss latency ((Cycle/Count))
system.cpu.icache.blockedCycles::no_mshrs          407                       # number of cycles access was blocked (Cycle)
system.cpu.icache.blockedCycles::no_targets            0                       # number of cycles access was blocked (Cycle)
system.cpu.icache.blockedCauses::no_mshrs            9                       # number of times access was blocked (Count)
system.cpu.icache.blockedCauses::no_targets            0                       # number of times access was blocked (Count)
system.cpu.icache.avgBlocked::no_mshrs      45.222222                       # average number of cycles each access was blocked ((Cycle/Count))
system.cpu.icache.avgBlocked::no_targets          nan                       # average number of cycles each access was blocked ((Cycle/Count))
system.cpu.icache.demandMshrHits::cpu.inst          743                       # number of demand (read+write) MSHR hits (Count)
system.cpu.icache.demandMshrHits::total           743                       # number of demand (read+write) MSHR hits (Count)
system.cpu.icache.overallMshrHits::cpu.inst          743                       # number of overall MSHR hits (Count)
system.cpu.icache.overallMshrHits::total          743                       # number of overall MSHR hits (Count)
system.cpu.icache.demandMshrMisses::cpu.inst         2328                       # number of demand (read+write) MSHR misses (Count)
system.cpu.icache.demandMshrMisses::total         2328                       # number of demand (read+write) MSHR misses (Count)
system.cpu.icache.overallMshrMisses::cpu.inst         2328                       # number of overall MSHR misses (Count)
system.cpu.icache.overallMshrMisses::total         2328                       # number of overall MSHR misses (Count)
system.cpu.icache.demandMshrMissLatency::cpu.inst    244310999                       # number of demand (read+write) MSHR miss ticks (Tick)
system.cpu.icache.demandMshrMissLatency::total    244310999                       # number of demand (read+write) MSHR miss ticks (Tick)
system.cpu.icache.overallMshrMissLatency::cpu.inst    244310999                       # number of overall MSHR miss ticks (Tick)
system.cpu.icache.overallMshrMissLatency::total    244310999                       # number of overall MSHR miss ticks (Tick)
system.cpu.icache.demandMshrMissRate::cpu.inst     0.000279                       # mshr miss ratio for demand accesses (Ratio)
system.cpu.icache.demandMshrMissRate::total     0.000279                       # mshr miss ratio for demand accesses (Ratio)
system.cpu.icache.overallMshrMissRate::cpu.inst     0.000279                       # mshr miss ratio for overall accesses (Ratio)
system.cpu.icache.overallMshrMissRate::total     0.000279                       # mshr miss ratio for overall accesses (Ratio)
system.cpu.icache.demandAvgMshrMissLatency::cpu.inst 104944.587199                       # average overall mshr miss latency ((Cycle/Count))
system.cpu.icache.demandAvgMshrMissLatency::total 104944.587199                       # average overall mshr miss latency ((Cycle/Count))
system.cpu.icache.overallAvgMshrMissLatency::cpu.inst 104944.587199                       # average overall mshr miss latency ((Cycle/Count))
system.cpu.icache.overallAvgMshrMissLatency::total 104944.587199                       # average overall mshr miss latency ((Cycle/Count))
system.cpu.icache.replacements                   2070                       # number of replacements (Count)
system.cpu.icache.ReadReq.hits::cpu.inst      8342905                       # number of ReadReq hits (Count)
system.cpu.icache.ReadReq.hits::total         8342905                       # number of ReadReq hits (Count)
system.cpu.icache.ReadReq.misses::cpu.inst         3071                       # number of ReadReq misses (Count)
system.cpu.icache.ReadReq.misses::total          3071                       # number of ReadReq misses (Count)
system.cpu.icache.ReadReq.missLatency::cpu.inst    305154999                       # number of ReadReq miss ticks (Tick)
system.cpu.icache.ReadReq.missLatency::total    305154999                       # number of ReadReq miss ticks (Tick)
system.cpu.icache.ReadReq.accesses::cpu.inst      8345976                       # number of ReadReq accesses(hits+misses) (Count)
system.cpu.icache.ReadReq.accesses::total      8345976                       # number of ReadReq accesses(hits+misses) (Count)
system.cpu.icache.ReadReq.missRate::cpu.inst     0.000368                       # miss rate for ReadReq accesses (Ratio)
system.cpu.icache.ReadReq.missRate::total     0.000368                       # miss rate for ReadReq accesses (Ratio)
system.cpu.icache.ReadReq.avgMissLatency::cpu.inst 99366.655487                       # average ReadReq miss latency ((Tick/Count))
system.cpu.icache.ReadReq.avgMissLatency::total 99366.655487                       # average ReadReq miss latency ((Tick/Count))
system.cpu.icache.ReadReq.mshrHits::cpu.inst          743                       # number of ReadReq MSHR hits (Count)
system.cpu.icache.ReadReq.mshrHits::total          743                       # number of ReadReq MSHR hits (Count)
system.cpu.icache.ReadReq.mshrMisses::cpu.inst         2328                       # number of ReadReq MSHR misses (Count)
system.cpu.icache.ReadReq.mshrMisses::total         2328                       # number of ReadReq MSHR misses (Count)
system.cpu.icache.ReadReq.mshrMissLatency::cpu.inst    244310999                       # number of ReadReq MSHR miss ticks (Tick)
system.cpu.icache.ReadReq.mshrMissLatency::total    244310999                       # number of ReadReq MSHR miss ticks (Tick)
system.cpu.icache.ReadReq.mshrMissRate::cpu.inst     0.000279                       # mshr miss rate for ReadReq accesses (Ratio)
system.cpu.icache.ReadReq.mshrMissRate::total     0.000279                       # mshr miss rate for ReadReq accesses (Ratio)
system.cpu.icache.ReadReq.avgMshrMissLatency::cpu.inst 104944.587199                       # average ReadReq mshr miss latency ((Tick/Count))
system.cpu.icache.ReadReq.avgMshrMissLatency::total 104944.587199                       # average ReadReq mshr miss latency ((Tick/Count))
system.cpu.icache.power_state.pwrStateResidencyTicks::UNDEFINED  56454180000                       # Cumulative time (in ticks) in various power states (Tick)
system.cpu.icache.tags.tagsInUse           255.911932                       # Average ticks per tags in use ((Tick/Count))
system.cpu.icache.tags.totalRefs              8345232                       # Total number of references to valid blocks. (Count)
system.cpu.icache.tags.sampledRefs               2327                       # Sample count of references to valid blocks. (Count)
system.cpu.icache.tags.avgRefs            3586.262140                       # Average number of references to valid blocks. ((Count/Count))
system.cpu.icache.tags.warmupTick              109000                       # The tick when the warmup percentage was hit. (Tick)
system.cpu.icache.tags.occupancies::cpu.inst   255.911932                       # Average occupied blocks per tick, per requestor ((Count/Tick))
system.cpu.icache.tags.avgOccs::cpu.inst     0.999656                       # Average percentage of cache occupancy ((Ratio/Tick))
system.cpu.icache.tags.avgOccs::total        0.999656                       # Average percentage of cache occupancy ((Ratio/Tick))
system.cpu.icache.tags.occupanciesTaskId::1024          256                       # Occupied blocks per task id (Count)
system.cpu.icache.tags.ageTaskId_1024::0           73                       # Occupied blocks per task id, per block age (Count)
system.cpu.icache.tags.ageTaskId_1024::1          155                       # Occupied blocks per task id, per block age (Count)
system.cpu.icache.tags.ageTaskId_1024::4           28                       # Occupied blocks per task id, per block age (Count)
system.cpu.icache.tags.ratioOccsTaskId::1024            1                       # Ratio of occupied blocks and all blocks, per task id (Ratio)
system.cpu.icache.tags.tagAccesses           16694279                       # Number of tag accesses (Count)
system.cpu.icache.tags.dataAccesses          16694279                       # Number of data accesses (Count)
system.cpu.icache.tags.power_state.pwrStateResidencyTicks::UNDEFINED  56454180000                       # Cumulative time (in ticks) in various power states (Tick)
system.cpu.interrupts.clk_domain.clock          16000                       # Clock period in ticks (Tick)
system.cpu.lsq0.forwLoads                    11410903                       # Number of loads that had data forwarded from stores (Count)
system.cpu.lsq0.squashedLoads                 3529068                       # Number of loads squashed (Count)
system.cpu.lsq0.ignoredResponses                24934                       # Number of memory responses ignored because the instruction is squashed (Count)
system.cpu.lsq0.memOrderViolation                3111                       # Number of memory ordering violations (Count)
system.cpu.lsq0.squashedStores                 789711                       # Number of stores squashed (Count)
system.cpu.lsq0.rescheduledLoads                    5                       # Number of loads that were rescheduled (Count)
system.cpu.lsq0.blockedByCache                    508                       # Number of times an access to memory failed due to the cache being blocked (Count)
system.cpu.lsq0.loadToUse::samples           19316023                       # Distribution of cycle latency between the first time a load is issued and its completion (Unspecified)
system.cpu.lsq0.loadToUse::mean              3.407565                       # Distribution of cycle latency between the first time a load is issued and its completion (Unspecified)
system.cpu.lsq0.loadToUse::stdev            10.247510                       # Distribution of cycle latency between the first time a load is issued and its completion (Unspecified)
system.cpu.lsq0.loadToUse::0-9               19160630     99.20%     99.20% # Distribution of cycle latency between the first time a load is issued and its completion (Unspecified)
system.cpu.lsq0.loadToUse::10-19                 1124      0.01%     99.20% # Distribution of cycle latency between the first time a load is issued and its completion (Unspecified)
system.cpu.lsq0.loadToUse::20-29                 6718      0.03%     99.24% # Distribution of cycle latency between the first time a load is issued and its completion (Unspecified)
system.cpu.lsq0.loadToUse::30-39                  606      0.00%     99.24% # Distribution of cycle latency between the first time a load is issued and its completion (Unspecified)
system.cpu.lsq0.loadToUse::40-49                  764      0.00%     99.24% # Distribution of cycle latency between the first time a load is issued and its completion (Unspecified)
system.cpu.lsq0.loadToUse::50-59                 8756      0.05%     99.29% # Distribution of cycle latency between the first time a load is issued and its completion (Unspecified)
system.cpu.lsq0.loadToUse::60-69                 1352      0.01%     99.30% # Distribution of cycle latency between the first time a load is issued and its completion (Unspecified)
system.cpu.lsq0.loadToUse::70-79                 1698      0.01%     99.30% # Distribution of cycle latency between the first time a load is issued and its completion (Unspecified)
system.cpu.lsq0.loadToUse::80-89                24957      0.13%     99.43% # Distribution of cycle latency between the first time a load is issued and its completion (Unspecified)
system.cpu.lsq0.loadToUse::90-99                29143      0.15%     99.58% # Distribution of cycle latency between the first time a load is issued and its completion (Unspecified)
system.cpu.lsq0.loadToUse::100-109              25037      0.13%     99.71% # Distribution of cycle latency between the first time a load is issued and its completion (Unspecified)
system.cpu.lsq0.loadToUse::110-119              18867      0.10%     99.81% # Distribution of cycle latency between the first time a load is issued and its completion (Unspecified)
system.cpu.lsq0.loadToUse::120-129              16750      0.09%     99.90% # Distribution of cycle latency between the first time a load is issued and its completion (Unspecified)
system.cpu.lsq0.loadToUse::130-139                583      0.00%     99.90% # Distribution of cycle latency between the first time a load is issued and its completion (Unspecified)
system.cpu.lsq0.loadToUse::140-149                337      0.00%     99.90% # Distribution of cycle latency between the first time a load is issued and its completion (Unspecified)
system.cpu.lsq0.loadToUse::150-159                376      0.00%     99.91% # Distribution of cycle latency between the first time a load is issued and its completion (Unspecified)
system.cpu.lsq0.loadToUse::160-169               7137      0.04%     99.94% # Distribution of cycle latency between the first time a load is issued and its completion (Unspecified)
system.cpu.lsq0.loadToUse::170-179               1293      0.01%     99.95% # Distribution of cycle latency between the first time a load is issued and its completion (Unspecified)
system.cpu.lsq0.loadToUse::180-189               2028      0.01%     99.96% # Distribution of cycle latency between the first time a load is issued and its completion (Unspecified)
system.cpu.lsq0.loadToUse::190-199               1390      0.01%     99.97% # Distribution of cycle latency between the first time a load is issued and its completion (Unspecified)
system.cpu.lsq0.loadToUse::200-209               1221      0.01%     99.97% # Distribution of cycle latency between the first time a load is issued and its completion (Unspecified)
system.cpu.lsq0.loadToUse::210-219               1094      0.01%     99.98% # Distribution of cycle latency between the first time a load is issued and its completion (Unspecified)
system.cpu.lsq0.loadToUse::220-229                782      0.00%     99.98% # Distribution of cycle latency between the first time a load is issued and its completion (Unspecified)
system.cpu.lsq0.loadToUse::230-239                483      0.00%     99.99% # Distribution of cycle latency between the first time a load is issued and its completion (Unspecified)
system.cpu.lsq0.loadToUse::240-249                347      0.00%     99.99% # Distribution of cycle latency between the first time a load is issued and its completion (Unspecified)
system.cpu.lsq0.loadToUse::250-259                237      0.00%     99.99% # Distribution of cycle latency between the first time a load is issued and its completion (Unspecified)
system.cpu.lsq0.loadToUse::260-269                315      0.00%     99.99% # Distribution of cycle latency between the first time a load is issued and its completion (Unspecified)
system.cpu.lsq0.loadToUse::270-279                204      0.00%     99.99% # Distribution of cycle latency between the first time a load is issued and its completion (Unspecified)
system.cpu.lsq0.loadToUse::280-289                181      0.00%     99.99% # Distribution of cycle latency between the first time a load is issued and its completion (Unspecified)
system.cpu.lsq0.loadToUse::290-299                186      0.00%     99.99% # Distribution of cycle latency between the first time a load is issued and its completion (Unspecified)
system.cpu.lsq0.loadToUse::overflows             1427      0.01%    100.00% # Distribution of cycle latency between the first time a load is issued and its completion (Unspecified)
[...]
system.mem_ctrl.dram.numReads::cpu.data         51718                       # Number of read requests responded to by this memory (Count)
system.mem_ctrl.dram.numReads::total            54041                       # Number of read requests responded to by this memory (Count)
system.mem_ctrl.dram.numWrites::writebacks        26663                       # Number of write requests responded to by this memory (Count)
system.mem_ctrl.dram.numWrites::total           26663                       # Number of write requests responded to by this memory (Count)
system.mem_ctrl.dram.bwRead::cpu.inst         2633499                       # Total read bandwidth from this memory ((Byte/Second))
system.mem_ctrl.dram.bwRead::cpu.data        58630769                       # Total read bandwidth from this memory ((Byte/Second))
system.mem_ctrl.dram.bwRead::total           61264268                       # Total read bandwidth from this memory ((Byte/Second))
system.mem_ctrl.dram.bwInstRead::cpu.inst      2633499                       # Instruction read bandwidth from this memory ((Byte/Second))
system.mem_ctrl.dram.bwInstRead::total        2633499                       # Instruction read bandwidth from this memory ((Byte/Second))
system.mem_ctrl.dram.bwWrite::writebacks     30226849                       # Write bandwidth from this memory ((Byte/Second))
system.mem_ctrl.dram.bwWrite::total          30226849                       # Write bandwidth from this memory ((Byte/Second))
system.mem_ctrl.dram.bwTotal::writebacks     30226849                       # Total bandwidth to/from this memory ((Byte/Second))
system.mem_ctrl.dram.bwTotal::cpu.inst        2633499                       # Total bandwidth to/from this memory ((Byte/Second))
system.mem_ctrl.dram.bwTotal::cpu.data       58630769                       # Total bandwidth to/from this memory ((Byte/Second))
system.mem_ctrl.dram.bwTotal::total          91491117                       # Total bandwidth to/from this memory ((Byte/Second))
system.mem_ctrl.dram.readBursts                 54037                       # Number of DRAM read bursts (Count)
system.mem_ctrl.dram.writeBursts                46506                       # Number of DRAM write bursts (Count)
system.mem_ctrl.dram.perBankRdBursts::0          3182                       # Per bank write bursts (Count)
system.mem_ctrl.dram.perBankRdBursts::1          3086                       # Per bank write bursts (Count)
system.mem_ctrl.dram.perBankRdBursts::2          3464                       # Per bank write bursts (Count)
system.mem_ctrl.dram.perBankRdBursts::3          3413                       # Per bank write bursts (Count)
system.mem_ctrl.dram.perBankRdBursts::4          3256                       # Per bank write bursts (Count)
system.mem_ctrl.dram.perBankRdBursts::5          3341                       # Per bank write bursts (Count)
system.mem_ctrl.dram.perBankRdBursts::6          3371                       # Per bank write bursts (Count)
system.mem_ctrl.dram.perBankRdBursts::7          3497                       # Per bank write bursts (Count)
system.mem_ctrl.dram.perBankRdBursts::8          3393                       # Per bank write bursts (Count)
system.mem_ctrl.dram.perBankRdBursts::9          3697                       # Per bank write bursts (Count)
system.mem_ctrl.dram.perBankRdBursts::10         3251                       # Per bank write bursts (Count)
system.mem_ctrl.dram.perBankRdBursts::11         3382                       # Per bank write bursts (Count)
system.mem_ctrl.dram.perBankRdBursts::12         3558                       # Per bank write bursts (Count)
system.mem_ctrl.dram.perBankRdBursts::13         3352                       # Per bank write bursts (Count)
system.mem_ctrl.dram.perBankRdBursts::14         3470                       # Per bank write bursts (Count)
system.mem_ctrl.dram.perBankRdBursts::15         3324                       # Per bank write bursts (Count)
system.mem_ctrl.dram.perBankWrBursts::0          2745                       # Per bank write bursts (Count)
system.mem_ctrl.dram.perBankWrBursts::1          2630                       # Per bank write bursts (Count)
system.mem_ctrl.dram.perBankWrBursts::2          3002                       # Per bank write bursts (Count)
system.mem_ctrl.dram.perBankWrBursts::3          2892                       # Per bank write bursts (Count)
system.mem_ctrl.dram.perBankWrBursts::4          2813                       # Per bank write bursts (Count)
system.mem_ctrl.dram.perBankWrBursts::5          2748                       # Per bank write bursts (Count)
system.mem_ctrl.dram.perBankWrBursts::6          2976                       # Per bank write bursts (Count)
system.mem_ctrl.dram.perBankWrBursts::7          3051                       # Per bank write bursts (Count)
system.mem_ctrl.dram.perBankWrBursts::8          3054                       # Per bank write bursts (Count)
system.mem_ctrl.dram.perBankWrBursts::9          3128                       # Per bank write bursts (Count)
system.mem_ctrl.dram.perBankWrBursts::10         2876                       # Per bank write bursts (Count)
system.mem_ctrl.dram.perBankWrBursts::11         2895                       # Per bank write bursts (Count)
system.mem_ctrl.dram.perBankWrBursts::12         3083                       # Per bank write bursts (Count)
system.mem_ctrl.dram.perBankWrBursts::13         2874                       # Per bank write bursts (Count)
system.mem_ctrl.dram.perBankWrBursts::14         2931                       # Per bank write bursts (Count)
system.mem_ctrl.dram.perBankWrBursts::15         2808                       # Per bank write bursts (Count)
system.mem_ctrl.dram.totQLat               1640665535                       # Total ticks spent queuing (Tick)
system.mem_ctrl.dram.totBusLat              270185000                       # Total ticks spent in databus transfers (Tick)
system.mem_ctrl.dram.totMemAccLat          2653859285                       # Total ticks spent from burst creation until serviced by the DRAM (Tick)
system.mem_ctrl.dram.avgQLat                 30361.89                       # Average queueing delay per DRAM burst ((Tick/Count))
system.mem_ctrl.dram.avgBusLat                5000.00                       # Average bus latency per DRAM burst ((Tick/Count))
system.mem_ctrl.dram.avgMemAccLat            49111.89                       # Average memory access latency per DRAM burst ((Tick/Count))
system.mem_ctrl.dram.readRowHits                17064                       # Number of row buffer hits during reads (Count)
system.mem_ctrl.dram.writeRowHits               39216                       # Number of row buffer hits during writes (Count)
system.mem_ctrl.dram.readRowHitRate             31.58                       # Row buffer hit rate for reads (Ratio)
system.mem_ctrl.dram.writeRowHitRate            84.32                       # Row buffer hit rate for writes (Ratio)
system.mem_ctrl.dram.bytesPerActivate::samples        44255                       # Bytes accessed per row activation (Byte)
system.mem_ctrl.dram.bytesPerActivate::mean   145.351079                       # Bytes accessed per row activation (Byte)
system.mem_ctrl.dram.bytesPerActivate::gmean    88.886920                       # Bytes accessed per row activation (Byte)
system.mem_ctrl.dram.bytesPerActivate::stdev   233.963307                       # Bytes accessed per row activation (Byte)
system.mem_ctrl.dram.bytesPerActivate::0-127        35236     79.62%     79.62% # Bytes accessed per row activation (Byte)
system.mem_ctrl.dram.bytesPerActivate::128-255         4172      9.43%     89.05% # Bytes accessed per row activation (Byte)
system.mem_ctrl.dram.bytesPerActivate::256-383          988      2.23%     91.28% # Bytes accessed per row activation (Byte)
system.mem_ctrl.dram.bytesPerActivate::384-511          490      1.11%     92.39% # Bytes accessed per row activation (Byte)
system.mem_ctrl.dram.bytesPerActivate::512-639          362      0.82%     93.21% # Bytes accessed per row activation (Byte)
system.mem_ctrl.dram.bytesPerActivate::640-767          283      0.64%     93.84% # Bytes accessed per row activation (Byte)
system.mem_ctrl.dram.bytesPerActivate::768-895          249      0.56%     94.41% # Bytes accessed per row activation (Byte)
system.mem_ctrl.dram.bytesPerActivate::896-1023          126      0.28%     94.69% # Bytes accessed per row activation (Byte)
system.mem_ctrl.dram.bytesPerActivate::1024-1151         2349      5.31%    100.00% # Bytes accessed per row activation (Byte)
system.mem_ctrl.dram.bytesPerActivate::total        44255                       # Bytes accessed per row activation (Byte)
system.mem_ctrl.dram.bytesRead                3458368                       # Total number of bytes read from DRAM (Byte)
system.mem_ctrl.dram.bytesWritten             2976384                       # Total number of bytes written to DRAM (Byte)
system.mem_ctrl.dram.avgRdBW                61.259733                       # Average DRAM read bandwidth in MiBytes/s ((Byte/Second))
system.mem_ctrl.dram.avgWrBW                52.722119                       # Average DRAM write bandwidth in MiBytes/s ((Byte/Second))
system.mem_ctrl.dram.peakBW                  12800.00                       # Theoretical peak bandwidth in MiByte/s ((Byte/Second))
system.mem_ctrl.dram.busUtil                     0.89                       # Data bus utilization in percentage (Ratio)
system.mem_ctrl.dram.busUtilRead                 0.48                       # Data bus utilization in percentage for reads (Ratio)
system.mem_ctrl.dram.busUtilWrite                0.41                       # Data bus utilization in percentage for writes (Ratio)
system.mem_ctrl.dram.pageHitRate                55.98                       # Row buffer hit rate, read and write combined (Ratio)
system.mem_ctrl.dram.power_state.pwrStateResidencyTicks::UNDEFINED  56454180000                       # Cumulative time (in ticks) in various power states (Tick)
system.mem_ctrl.dram.rank0.actEnergy        158022480                       # Energy for activate commands per rank (pJ) (Joule)
system.mem_ctrl.dram.rank0.preEnergy         83971965                       # Energy for precharge commands per rank (pJ) (Joule)
system.mem_ctrl.dram.rank0.readEnergy       189995400                       # Energy for read commands per rank (pJ) (Joule)
system.mem_ctrl.dram.rank0.writeEnergy      119313540                       # Energy for write commands per rank (pJ) (Joule)
system.mem_ctrl.dram.rank0.refreshEnergy 4456140000.000001                       # Energy for refresh commands per rank (pJ) (Joule)
system.mem_ctrl.dram.rank0.actBackEnergy  10162353300                       # Energy for active background per rank (pJ) (Joule)
system.mem_ctrl.dram.rank0.preBackEnergy  13120633920                       # Energy for precharge background per rank (pJ) (Joule)
system.mem_ctrl.dram.rank0.actPowerDownEnergy            0                       # Energy for active power-down per rank (pJ) (Joule)
system.mem_ctrl.dram.rank0.prePowerDownEnergy            0                       # Energy for precharge power-down per rank (pJ) (Joule)
system.mem_ctrl.dram.rank0.selfRefreshEnergy            0                       # Energy for self refresh per rank (pJ) (Joule)
system.mem_ctrl.dram.rank0.totalEnergy    28290430605                       # Total energy per rank (pJ) (Joule)
system.mem_ctrl.dram.rank0.averagePower    501.121983                       # Core power per rank (mW) (Watt)
system.mem_ctrl.dram.rank0.totalIdleTime            0                       # Total Idle time Per DRAM Rank (Tick)
system.mem_ctrl.dram.rank0.pwrStateTime::IDLE  33879929252                       # Time in different power states (Tick)
system.mem_ctrl.dram.rank0.pwrStateTime::REF   1885000000                       # Time in different power states (Tick)
system.mem_ctrl.dram.rank0.pwrStateTime::SREF            0                       # Time in different power states (Tick)
system.mem_ctrl.dram.rank0.pwrStateTime::PRE_PDN            0                       # Time in different power states (Tick)
system.mem_ctrl.dram.rank0.pwrStateTime::ACT  20689250748                       # Time in different power states (Tick)
system.mem_ctrl.dram.rank0.pwrStateTime::ACT_PDN            0                       # Time in different power states (Tick)
system.mem_ctrl.dram.rank1.actEnergy        158015340                       # Energy for activate commands per rank (pJ) (Joule)
system.mem_ctrl.dram.rank1.preEnergy         83975760                       # Energy for precharge commands per rank (pJ) (Joule)
system.mem_ctrl.dram.rank1.readEnergy       195828780                       # Energy for read commands per rank (pJ) (Joule)
system.mem_ctrl.dram.rank1.writeEnergy      123447780                       # Energy for write commands per rank (pJ) (Joule)
system.mem_ctrl.dram.rank1.refreshEnergy 4456140000.000001                       # Energy for refresh commands per rank (pJ) (Joule)
system.mem_ctrl.dram.rank1.actBackEnergy  10092180600                       # Energy for active background per rank (pJ) (Joule)
system.mem_ctrl.dram.rank1.preBackEnergy  13179726720                       # Energy for precharge background per rank (pJ) (Joule)
system.mem_ctrl.dram.rank1.actPowerDownEnergy            0                       # Energy for active power-down per rank (pJ) (Joule)
system.mem_ctrl.dram.rank1.prePowerDownEnergy            0                       # Energy for precharge power-down per rank (pJ) (Joule)
system.mem_ctrl.dram.rank1.selfRefreshEnergy            0                       # Energy for self refresh per rank (pJ) (Joule)
system.mem_ctrl.dram.rank1.totalEnergy    28289314980                       # Total energy per rank (pJ) (Joule)
system.mem_ctrl.dram.rank1.averagePower    501.102221                       # Core power per rank (mW) (Watt)
system.mem_ctrl.dram.rank1.totalIdleTime            0                       # Total Idle time Per DRAM Rank (Tick)
system.mem_ctrl.dram.rank1.pwrStateTime::IDLE  34037353735                       # Time in different power states (Tick)
system.mem_ctrl.dram.rank1.pwrStateTime::REF   1885000000                       # Time in different power states (Tick)
system.mem_ctrl.dram.rank1.pwrStateTime::SREF            0                       # Time in different power states (Tick)
system.mem_ctrl.dram.rank1.pwrStateTime::PRE_PDN            0                       # Time in different power states (Tick)
system.mem_ctrl.dram.rank1.pwrStateTime::ACT  20531826265                       # Time in different power states (Tick)
system.mem_ctrl.dram.rank1.pwrStateTime::ACT_PDN            0                       # Time in different power states (Tick)
system.mem_ctrl.power_state.pwrStateResidencyTicks::UNDEFINED  56454180000                       # Cumulative time (in ticks) in various power states (Tick)
system.membus.transDist::ReadResp               36142                       # Transaction distribution (Count)
system.membus.transDist::WritebackDirty         26663                       # Transaction distribution (Count)
system.membus.transDist::WritebackClean         19869                       # Transaction distribution (Count)
system.membus.transDist::CleanEvict              2062                       # Transaction distribution (Count)
system.membus.transDist::UpgradeReq              8875                       # Transaction distribution (Count)
system.membus.transDist::ReadExReq              17899                       # Transaction distribution (Count)
system.membus.transDist::ReadExResp             17899                       # Transaction distribution (Count)
system.membus.transDist::ReadCleanReq           36142                       # Transaction distribution (Count)
system.membus.pktCount_system.l2_victimcache.mem_side_port::system.mem_ctrl.port       165551                       # Packet count per connected requestor and responder (Count)
system.membus.pktCount_system.l2_victimcache.mem_side_port::total       165551                       # Packet count per connected requestor and responder (Count)
system.membus.pktCount::total                  165551                       # Packet count per connected requestor and responder (Count)
system.membus.pktSize_system.l2_victimcache.mem_side_port::system.mem_ctrl.port      6436672                       # Cumulative packet size per connected requestor and responder (Byte)
system.membus.pktSize_system.l2_victimcache.mem_side_port::total      6436672                       # Cumulative packet size per connected requestor and responder (Byte)
system.membus.pktSize::total                  6436672                       # Cumulative packet size per connected requestor and responder (Byte)
system.membus.snoops                                0                       # Total snoops (Count)
system.membus.snoopTraffic                          0                       # Total snoop traffic (Byte)
system.membus.snoopFanout::samples              62916                       # Request fanout histogram (Count)
system.membus.snoopFanout::mean                     0                       # Request fanout histogram (Count)
system.membus.snoopFanout::stdev                    0                       # Request fanout histogram (Count)
system.membus.snoopFanout::underflows               0      0.00%      0.00% # Request fanout histogram (Count)
system.membus.snoopFanout::0                    62916    100.00%    100.00% # Request fanout histogram (Count)
system.membus.snoopFanout::1                        0      0.00%    100.00% # Request fanout histogram (Count)
system.membus.snoopFanout::overflows                0      0.00%    100.00% # Request fanout histogram (Count)
system.membus.snoopFanout::min_value                0                       # Request fanout histogram (Count)
system.membus.snoopFanout::max_value                0                       # Request fanout histogram (Count)
system.membus.snoopFanout::total                62916                       # Request fanout histogram (Count)
system.membus.power_state.pwrStateResidencyTicks::UNDEFINED  56454180000                       # Cumulative time (in ticks) in various power states (Tick)
system.membus.reqLayer2.occupancy           399981554                       # Layer occupancy (ticks) (Tick)
system.membus.reqLayer2.utilization               0.0                       # Layer utilization (Ratio)
system.membus.respLayer0.occupancy          294258342                       # Layer occupancy (ticks) (Tick)
system.membus.respLayer0.utilization              0.0                       # Layer utilization (Ratio)
system.membus.snoop_filter.totRequests         111510                       # Total number of requests made to the snoop filter. (Count)
system.membus.snoop_filter.hitSingleRequests        57477                       # Number of requests hitting in the snoop filter with a single holder of the requested data. (Count)
system.membus.snoop_filter.hitMultiRequests            0                       # Number of requests hitting in the snoop filter with multiple (>1) holders of the requested data. (Count)
system.membus.snoop_filter.totSnoops                0                       # Total number of snoops made to the snoop filter. (Count)
system.membus.snoop_filter.hitSingleSnoops            0                       # Number of snoops hitting in the snoop filter with a single holder of the requested data. (Count)
system.membus.snoop_filter.hitMultiSnoops            0                       # Number of snoops hitting in the snoop filter with multiple (>1) holders of the requested data. (Count)
system.workload.inst.arm                            0                       # number of arm instructions executed (Count)
system.workload.inst.quiesce                        0                       # number of quiesce instructions executed (Count)

---------- End Simulation Statistics   ----------
