
---------- Begin Simulation Statistics ----------
simSeconds                                   0.001690                       # Number of seconds simulated (Second)
simTicks                                   1689510000                       # Number of ticks simulated (Tick)
finalTick                                  1689510000                       # Number of ticks from beginning of simulation (restored from checkpoints and never reset) (Tick)
simFreq                                  1000000000000                       # The number of ticks per simulated second ((Tick/Second))
hostSeconds                                      8.91                       # Real time elapsed on the host (Second)
hostTickRate                                189558678                       # The number of ticks simulated per host second (ticks/s) ((Tick/Second))
hostMemory                                     645988                       # Number of bytes of host memory used (Byte)
simInsts                                      4104587                       # Number of instructions simulated (Count)
simOps                                        7389469                       # Number of ops (including micro ops) simulated (Count)
hostInstRate                                   460519                       # Simulator instruction rate (inst/s) ((Count/Second))
hostOpRate                                     829068                       # Simulator op (including micro ops) rate (op/s) ((Count/Second))
system.clk_domain.clock                          1000                       # Clock period in ticks (Tick)
system.clk_domain.voltage_domain.voltage            1                       # Voltage in Volts (Volt)
system.cpu.numCycles                          1689511                       # Number of cpu cycles simulated (Cycle)
system.cpu.numWorkItemsStarted                      0                       # Number of work items this cpu started (Count)
system.cpu.numWorkItemsCompleted                    0                       # Number of work items this cpu completed (Count)
system.cpu.instsAdded                         7402466                       # Number of instructions added to the IQ (excludes non-spec) (Count)
system.cpu.nonSpecInstsAdded                       10                       # Number of non-speculative instructions added to the IQ (Count)
system.cpu.instsIssued                        7399427                       # Number of instructions issued (Count)
system.cpu.squashedInstsIssued                     25                       # Number of squashed instructions issued (Count)
system.cpu.squashedInstsExamined                13001                       # Number of squashed instructions iterated over during squash; mainly for profiling (Count)
system.cpu.squashedOperandsExamined             14680                       # Number of squashed operands that are examined and possibly removed from graph (Count)
system.cpu.squashedNonSpecRemoved                  10                       # Number of squashed non-spec instructions that were removed (Count)
system.cpu.numIssuedDist::samples             1669188                       # Number of insts issued each cycle (Count)
system.cpu.numIssuedDist::mean               4.432950                       # Number of insts issued each cycle (Count)
system.cpu.numIssuedDist::stdev              1.583590                       # Number of insts issued each cycle (Count)
system.cpu.numIssuedDist::underflows                0      0.00%      0.00% # Number of insts issued each cycle (Count)
system.cpu.numIssuedDist::0                     23035      1.38%      1.38% # Number of insts issued each cycle (Count)
system.cpu.numIssuedDist::1                      1811      0.11%      1.49% # Number of insts issued each cycle (Count)
system.cpu.numIssuedDist::2                      1270      0.08%      1.56% # Number of insts issued each cycle (Count)
system.cpu.numIssuedDist::3                    820357     49.15%     50.71% # Number of insts issued each cycle (Count)
system.cpu.numIssuedDist::4                      1100      0.07%     50.78% # Number of insts issued each cycle (Count)
system.cpu.numIssuedDist::5                       979      0.06%     50.84% # Number of insts issued each cycle (Count)
system.cpu.numIssuedDist::6                    819997     49.13%     99.96% # Number of insts issued each cycle (Count)
system.cpu.numIssuedDist::7                       384      0.02%     99.98% # Number of insts issued each cycle (Count)
system.cpu.numIssuedDist::8                       255      0.02%    100.00% # Number of insts issued each cycle (Count)
system.cpu.numIssuedDist::overflows                 0      0.00%    100.00% # Number of insts issued each cycle (Count)
system.cpu.numIssuedDist::min_value                 0                       # Number of insts issued each cycle (Count)
system.cpu.numIssuedDist::max_value                 8                       # Number of insts issued each cycle (Count)
system.cpu.numIssuedDist::total               1669188                       # Number of insts issued each cycle (Count)
system.cpu.statFuBusy::No_OpClass                   0      0.00%      0.00% # attempts to use FU when none available (Count)
system.cpu.statFuBusy::IntAlu                     214     75.09%     75.09% # attempts to use FU when none available (Count)
system.cpu.statFuBusy::IntMult                      0      0.00%     75.09% # attempts to use FU when none available (Count)
system.cpu.statFuBusy::IntDiv                       0      0.00%     75.09% # attempts to use FU when none available (Count)
system.cpu.statFuBusy::FloatAdd                     0      0.00%     75.09% # attempts to use FU when none available (Count)
system.cpu.statFuBusy::FloatCmp                     0      0.00%     75.09% # attempts to use FU when none available (Count)
system.cpu.statFuBusy::FloatCvt                     0      0.00%     75.09% # attempts to use FU when none available (Count)
system.cpu.statFuBusy::FloatMult                    0      0.00%     75.09% # attempts to use FU when none available (Count)
system.cpu.statFuBusy::FloatMultAcc                 0      0.00%     75.09% # attempts to use FU when none available (Count)
system.cpu.statFuBusy::FloatDiv                     0      0.00%     75.09% # attempts to use FU when none available (Count)
system.cpu.statFuBusy::FloatMisc                    0      0.00%     75.09% # attempts to use FU when none available (Count)
system.cpu.statFuBusy::FloatSqrt                    0      0.00%     75.09% # attempts to use FU when none available (Count)
system.cpu.statFuBusy::SimdAdd                      0      0.00%     75.09% # attempts to use FU when none available (Count)
system.cpu.statFuBusy::SimdAddAcc                   0      0.00%     75.09% # attempts to use FU when none available (Count)
system.cpu.statFuBusy::SimdAlu                     10      3.51%     78.60% # attempts to use FU when none available (Count)
system.cpu.statFuBusy::SimdCmp                      0      0.00%     78.60% # attempts to use FU when none available (Count)
system.cpu.statFuBusy::SimdCvt                      2      0.70%     79.30% # attempts to use FU when none available (Count)
system.cpu.statFuBusy::SimdMisc                     2      0.70%     80.00% # attempts to use FU when none available (Count)
system.cpu.statFuBusy::SimdMult                     0      0.00%     80.00% # attempts to use FU when none available (Count)
system.cpu.statFuBusy::SimdMultAcc                  0      0.00%     80.00% # attempts to use FU when none available (Count)
system.cpu.statFuBusy::SimdShift                    0      0.00%     80.00% # attempts to use FU when none available (Count)
system.cpu.statFuBusy::SimdShiftAcc                 0      0.00%     80.00% # attempts to use FU when none available (Count)
system.cpu.statFuBusy::SimdDiv                      0      0.00%     80.00% # attempts to use FU when none available (Count)
system.cpu.statFuBusy::SimdSqrt                     0      0.00%     80.00% # attempts to use FU when none available (Count)
system.cpu.statFuBusy::SimdFloatAdd                 0      0.00%     80.00% # attempts to use FU when none available (Count)
system.cpu.statFuBusy::SimdFloatAlu                 0      0.00%     80.00% # attempts to use FU when none available (Count)
system.cpu.statFuBusy::SimdFloatCmp                 0      0.00%     80.00% # attempts to use FU when none available (Count)
system.cpu.statFuBusy::SimdFloatCvt                 0      0.00%     80.00% # attempts to use FU when none available (Count)
system.cpu.statFuBusy::SimdFloatDiv                 0      0.00%     80.00% # attempts to use FU when none available (Count)
system.cpu.statFuBusy::SimdFloatMisc                0      0.00%     80.00% # attempts to use FU when none available (Count)
system.cpu.statFuBusy::SimdFloatMult                0      0.00%     80.00% # attempts to use FU when none available (Count)
system.cpu.statFuBusy::SimdFloatMultAcc             0      0.00%     80.00% # attempts to use FU when none available (Count)
system.cpu.statFuBusy::SimdFloatSqrt                0      0.00%     80.00% # attempts to use FU when none available (Count)
system.cpu.statFuBusy::SimdReduceAdd                0      0.00%     80.00% # attempts to use FU when none available (Count)
system.cpu.statFuBusy::SimdReduceAlu                0      0.00%     80.00% # attempts to use FU when none available (Count)
system.cpu.statFuBusy::SimdReduceCmp                0      0.00%     80.00% # attempts to use FU when none available (Count)
system.cpu.statFuBusy::SimdFloatReduceAdd            0      0.00%     80.00% # attempts to use FU when none available (Count)
system.cpu.statFuBusy::SimdFloatReduceCmp            0      0.00%     80.00% # attempts to use FU when none available (Count)
system.cpu.statFuBusy::SimdAes                      0      0.00%     80.00% # attempts to use FU when none available (Count)
system.cpu.statFuBusy::SimdAesMix                   0      0.00%     80.00% # attempts to use FU when none available (Count)
system.cpu.statFuBusy::SimdSha1Hash                 0      0.00%     80.00% # attempts to use FU when none available (Count)
system.cpu.statFuBusy::SimdSha1Hash2                0      0.00%     80.00% # attempts to use FU when none available (Count)
system.cpu.statFuBusy::SimdSha256Hash               0      0.00%     80.00% # attempts to use FU when none available (Count)
system.cpu.statFuBusy::SimdSha256Hash2              0      0.00%     80.00% # attempts to use FU when none available (Count)
system.cpu.statFuBusy::SimdShaSigma2                0      0.00%     80.00% # attempts to use FU when none available (Count)
system.cpu.statFuBusy::SimdShaSigma3                0      0.00%     80.00% # attempts to use FU when none available (Count)
system.cpu.statFuBusy::SimdPredAlu                  0      0.00%     80.00% # attempts to use FU when none available (Count)
system.cpu.statFuBusy::MemRead                     27      9.47%     89.47% # attempts to use FU when none available (Count)
system.cpu.statFuBusy::MemWrite                    14      4.91%     94.39% # attempts to use FU when none available (Count)
system.cpu.statFuBusy::FloatMemRead                 7      2.46%     96.84% # attempts to use FU when none available (Count)
system.cpu.statFuBusy::FloatMemWrite                9      3.16%    100.00% # attempts to use FU when none available (Count)
system.cpu.statFuBusy::IprAccess                    0      0.00%    100.00% # attempts to use FU when none available (Count)
system.cpu.statFuBusy::InstPrefetch                 0      0.00%    100.00% # attempts to use FU when none available (Count)
system.cpu.statIssuedInstType_0::No_OpClass          712      0.01%      0.01% # Number of instructions issued per FU type, per thread (Count)
system.cpu.statIssuedInstType_0::IntAlu       7393026     99.91%     99.92% # Number of instructions issued per FU type, per thread (Count)
system.cpu.statIssuedInstType_0::IntMult            6      0.00%     99.92% # Number of instructions issued per FU type, per thread (Count)
system.cpu.statIssuedInstType_0::IntDiv            29      0.00%     99.92% # Number of instructions issued per FU type, per thread (Count)
system.cpu.statIssuedInstType_0::FloatAdd          136      0.00%     99.93% # Number of instructions issued per FU type, per thread (Count)
system.cpu.statIssuedInstType_0::FloatCmp            0      0.00%     99.93% # Number of instructions issued per FU type, per thread (Count)
system.cpu.statIssuedInstType_0::FloatCvt            0      0.00%     99.93% # Number of instructions issued per FU type, per thread (Count)
system.cpu.statIssuedInstType_0::FloatMult            0      0.00%     99.93% # Number of instructions issued per FU type, per thread (Count)
system.cpu.statIssuedInstType_0::FloatMultAcc            0      0.00%     99.93% # Number of instructions issued per FU type, per thread (Count)
system.cpu.statIssuedInstType_0::FloatDiv            0      0.00%     99.93% # Number of instructions issued per FU type, per thread (Count)
system.cpu.statIssuedInstType_0::FloatMisc            0      0.00%     99.93% # Number of instructions issued per FU type, per thread (Count)
system.cpu.statIssuedInstType_0::FloatSqrt            0      0.00%     99.93% # Number of instructions issued per FU type, per thread (Count)
system.cpu.statIssuedInstType_0::SimdAdd            0      0.00%     99.93% # Number of instructions issued per FU type, per thread (Count)
system.cpu.statIssuedInstType_0::SimdAddAcc            0      0.00%     99.93% # Number of instructions issued per FU type, per thread (Count)
system.cpu.statIssuedInstType_0::SimdAlu          154      0.00%     99.93% # Number of instructions issued per FU type, per thread (Count)
system.cpu.statIssuedInstType_0::SimdCmp            0      0.00%     99.93% # Number of instructions issued per FU type, per thread (Count)
system.cpu.statIssuedInstType_0::SimdCvt           47      0.00%     99.93% # Number of instructions issued per FU type, per thread (Count)
system.cpu.statIssuedInstType_0::SimdMisc          216      0.00%     99.93% # Number of instructions issued per FU type, per thread (Count)
system.cpu.statIssuedInstType_0::SimdMult            0      0.00%     99.93% # Number of instructions issued per FU type, per thread (Count)
system.cpu.statIssuedInstType_0::SimdMultAcc            0      0.00%     99.93% # Number of instructions issued per FU type, per thread (Count)
system.cpu.statIssuedInstType_0::SimdShift            0      0.00%     99.93% # Number of instructions issued per FU type, per thread (Count)
system.cpu.statIssuedInstType_0::SimdShiftAcc            0      0.00%     99.93% # Number of instructions issued per FU type, per thread (Count)
system.cpu.statIssuedInstType_0::SimdDiv            0      0.00%     99.93% # Number of instructions issued per FU type, per thread (Count)
system.cpu.statIssuedInstType_0::SimdSqrt            0      0.00%     99.93% # Number of instructions issued per FU type, per thread (Count)
system.cpu.statIssuedInstType_0::SimdFloatAdd            0      0.00%     99.93% # Number of instructions issued per FU type, per thread (Count)
system.cpu.statIssuedInstType_0::SimdFloatAlu            0      0.00%     99.93% # Number of instructions issued per FU type, per thread (Count)
system.cpu.statIssuedInstType_0::SimdFloatCmp            0      0.00%     99.93% # Number of instructions issued per FU type, per thread (Count)
system.cpu.statIssuedInstType_0::SimdFloatCvt            0      0.00%     99.93% # Number of instructions issued per FU type, per thread (Count)
system.cpu.statIssuedInstType_0::SimdFloatDiv            0      0.00%     99.93% # Number of instructions issued per FU type, per thread (Count)
system.cpu.statIssuedInstType_0::SimdFloatMisc            0      0.00%     99.93% # Number of instructions issued per FU type, per thread (Count)
system.cpu.statIssuedInstType_0::SimdFloatMult            0      0.00%     99.93% # Number of instructions issued per FU type, per thread (Count)
system.cpu.statIssuedInstType_0::SimdFloatMultAcc            0      0.00%     99.93% # Number of instructions issued per FU type, per thread (Count)
system.cpu.statIssuedInstType_0::SimdFloatSqrt            0      0.00%     99.93% # Number of instructions issued per FU type, per thread (Count)
system.cpu.statIssuedInstType_0::SimdReduceAdd            0      0.00%     99.93% # Number of instructions issued per FU type, per thread (Count)
system.cpu.statIssuedInstType_0::SimdReduceAlu            0      0.00%     99.93% # Number of instructions issued per FU type, per thread (Count)
system.cpu.statIssuedInstType_0::SimdReduceCmp            0      0.00%     99.93% # Number of instructions issued per FU type, per thread (Count)
system.cpu.statIssuedInstType_0::SimdFloatReduceAdd            0      0.00%     99.93% # Number of instructions issued per FU type, per thread (Count)
system.cpu.statIssuedInstType_0::SimdFloatReduceCmp            0      0.00%     99.93% # Number of instructions issued per FU type, per thread (Count)
system.cpu.statIssuedInstType_0::SimdAes            0      0.00%     99.93% # Number of instructions issued per FU type, per thread (Count)
system.cpu.statIssuedInstType_0::SimdAesMix            0      0.00%     99.93% # Number of instructions issued per FU type, per thread (Count)
system.cpu.statIssuedInstType_0::SimdSha1Hash            0      0.00%     99.93% # Number of instructions issued per FU type, per thread (Count)
system.cpu.statIssuedInstType_0::SimdSha1Hash2            0      0.00%     99.93% # Number of instructions issued per FU type, per thread (Count)
system.cpu.statIssuedInstType_0::SimdSha256Hash            0      0.00%     99.93% # Number of instructions issued per FU type, per thread (Count)
system.cpu.statIssuedInstType_0::SimdSha256Hash2            0      0.00%     99.93% # Number of instructions issued per FU type, per thread (Count)
system.cpu.statIssuedInstType_0::SimdShaSigma2            0      0.00%     99.93% # Number of instructions issued per FU type, per thread (Count)
system.cpu.statIssuedInstType_0::SimdShaSigma3            0      0.00%     99.93% # Number of instructions issued per FU type, per thread (Count)
system.cpu.statIssuedInstType_0::SimdPredAlu            0      0.00%     99.93% # Number of instructions issued per FU type, per thread (Count)
system.cpu.statIssuedInstType_0::MemRead         2766      0.04%     99.97% # Number of instructions issued per FU type, per thread (Count)
system.cpu.statIssuedInstType_0::MemWrite         1711      0.02%     99.99% # Number of instructions issued per FU type, per thread (Count)
system.cpu.statIssuedInstType_0::FloatMemRead           88      0.00%     99.99% # Number of instructions issued per FU type, per thread (Count)
system.cpu.statIssuedInstType_0::FloatMemWrite          536      0.01%    100.00% # Number of instructions issued per FU type, per thread (Count)
system.cpu.statIssuedInstType_0::IprAccess            0      0.00%    100.00% # Number of instructions issued per FU type, per thread (Count)
system.cpu.statIssuedInstType_0::InstPrefetch            0      0.00%    100.00% # Number of instructions issued per FU type, per thread (Count)
system.cpu.statIssuedInstType_0::total        7399427                       # Number of instructions issued per FU type, per thread (Count)
system.cpu.issueRate                         4.379626                       # Inst issue rate ((Count/Cycle))
system.cpu.fuBusy                                 285                       # FU busy when requested (Count)
system.cpu.fuBusyRate                        0.000039                       # FU busy rate (busy events/executed inst) ((Count/Count))
system.cpu.intInstQueueReads                 16465681                       # Number of integer instruction queue reads (Count)
system.cpu.intInstQueueWrites                 7413968                       # Number of integer instruction queue writes (Count)
system.cpu.intInstQueueWakeupAccesses         7396594                       # Number of integer instruction queue wakeup accesses (Count)
system.cpu.fpInstQueueReads                      2671                       # Number of floating instruction queue reads (Count)
system.cpu.fpInstQueueWrites                     1521                       # Number of floating instruction queue writes (Count)
system.cpu.fpInstQueueWakeupAccesses             1273                       # Number of floating instruction queue wakeup accesses (Count)
system.cpu.vecInstQueueReads                        0                       # Number of vector instruction queue reads (Count)
system.cpu.vecInstQueueWrites                       0                       # Number of vector instruction queue writes (Count)
system.cpu.vecInstQueueWakeupAccesses               0                       # Number of vector instruction queue wakeup accesses (Count)
system.cpu.intAluAccesses                     7397652                       # Number of integer alu accesses (Count)
system.cpu.fpAluAccesses                         1348                       # Number of floating point alu accesses (Count)
system.cpu.vecAluAccesses                           0                       # Number of vector alu accesses (Count)
system.cpu.idleCycles                               0                       # Number of cycles IEW is idle (Cycle)
system.cpu.squashCycles                           651                       # Number of cycles IEW is squashing (Cycle)
system.cpu.blockCycles                           1782                       # Number of cycles IEW is blocking (Cycle)
system.cpu.unblockCycles                          737                       # Number of cycles IEW is unblocking (Cycle)
system.cpu.dispatchedInsts                    7402476                       # Number of instructions dispatched to IQ (Count)
system.cpu.dispSquashedInsts                       90                       # Number of squashed instructions skipped by dispatch (Count)
system.cpu.dispLoadInsts                         3099                       # Number of dispatched load instructions (Count)
system.cpu.dispStoreInsts                        2593                       # Number of dispatched store instructions (Count)
system.cpu.dispNonSpecInsts                         4                       # Number of dispatched non-speculative instructions (Count)
system.cpu.iqFullEvents                            12                       # Number of times the IQ has become full, causing a stall (Count)
system.cpu.lsqFullEvents                          724                       # Number of times the LSQ has become full, causing a stall (Count)
system.cpu.memOrderViolationEvents                 21                       # Number of memory order violations (Count)
system.cpu.predictedTakenIncorrect                 83                       # Number of branches that were predicted taken incorrectly (Count)
system.cpu.predictedNotTakenIncorrect             658                       # Number of branches that were predicted not taken incorrectly (Count)
system.cpu.branchMispredicts                      741                       # Number of branch mispredicts detected at execute (Count)
system.cpu.numInsts                           7398608                       # Number of executed instructions (Count)
system.cpu.numLoadInsts                          2725                       # Number of load instructions executed (Count)
system.cpu.numSquashedInsts                       819                       # Number of squashed instructions skipped in execute (Count)
system.cpu.numSwp                                   0                       # Number of swp insts executed (Count)
system.cpu.numNop                                   0                       # Number of nop insts executed (Count)
system.cpu.numRefs                               4892                       # Number of memory reference insts executed (Count)
system.cpu.numBranches                         821708                       # Number of branches executed (Count)
system.cpu.numStoreInsts                         2167                       # Number of stores executed (Count)
system.cpu.numRate                           4.379142                       # Inst execution rate ((Count/Cycle))
system.cpu.instsToCommit                      7398258                       # Cumulative count of insts sent to commit (Count)
system.cpu.writebackCount                     7397867                       # Cumulative count of insts written-back (Count)
system.cpu.producerInst                       6570821                       # Number of instructions producing a value (Count)
system.cpu.consumerInst                      11495349                       # Number of instructions consuming a value (Count)
system.cpu.wbRate                            4.378703                       # Insts written-back per cycle ((Count/Cycle))
system.cpu.wbFanout                          0.571607                       # Average fanout of values written-back ((Count/Count))
system.cpu.timesIdled                             296                       # Number of times that the entire CPU went into an idle state and unscheduled itself (Count)
system.cpu.idleCycles                           20323                       # Total number of cycles that the CPU has spent unscheduled due to idling (Cycle)
system.cpu.committedInsts                     4104587                       # Number of Instructions Simulated (Count)
system.cpu.committedOps                       7389469                       # Number of Ops (including micro ops) Simulated (Count)
system.cpu.cpi                               0.411615                       # CPI: Cycles Per Instruction ((Cycle/Count))
system.cpu.totalCpi                          0.411615                       # CPI: Total CPI of All Threads ((Cycle/Count))
system.cpu.ipc                               2.429453                       # IPC: Instructions Per Cycle ((Count/Cycle))
system.cpu.totalIpc                          2.429453                       # IPC: Total IPC of All Threads ((Count/Cycle))
system.cpu.intRegfileReads                    9864861                       # Number of integer regfile reads (Count)
system.cpu.intRegfileWrites                   6572941                       # Number of integer regfile writes (Count)
system.cpu.fpRegfileReads                        1518                       # Number of floating regfile reads (Count)
system.cpu.fpRegfileWrites                        711                       # Number of floating regfile writes (Count)
system.cpu.ccRegfileReads                     4107341                       # number of cc regfile reads (Count)
system.cpu.ccRegfileWrites                    3284190                       # number of cc regfile writes (Count)
system.cpu.miscRegfileReads                   1649328                       # number of misc regfile reads (Count)
system.cpu.MemDepUnit__0.insertedLoads           3099                       # Number of loads inserted to the mem dependence unit. (Count)
system.cpu.MemDepUnit__0.insertedStores          2593                       # Number of stores inserted to the mem dependence unit. (Count)
system.cpu.MemDepUnit__0.conflictingLoads           22                       # Number of conflicting loads. (Count)
system.cpu.MemDepUnit__0.conflictingStores           20                       # Number of conflicting stores. (Count)
system.cpu.MemDepUnit__1.insertedLoads              0                       # Number of loads inserted to the mem dependence unit. (Count)
system.cpu.MemDepUnit__1.insertedStores             0                       # Number of stores inserted to the mem dependence unit. (Count)
system.cpu.MemDepUnit__1.conflictingLoads            0                       # Number of conflicting loads. (Count)
system.cpu.MemDepUnit__1.conflictingStores            0                       # Number of conflicting stores. (Count)
system.cpu.MemDepUnit__2.insertedLoads              0                       # Number of loads inserted to the mem dependence unit. (Count)
system.cpu.MemDepUnit__2.insertedStores             0                       # Number of stores inserted to the mem dependence unit. (Count)
system.cpu.MemDepUnit__2.conflictingLoads            0                       # Number of conflicting loads. (Count)
system.cpu.MemDepUnit__2.conflictingStores            0                       # Number of conflicting stores. (Count)
system.cpu.MemDepUnit__3.insertedLoads              0                       # Number of loads inserted to the mem dependence unit. (Count)
system.cpu.MemDepUnit__3.insertedStores             0                       # Number of stores inserted to the mem dependence unit. (Count)
system.cpu.MemDepUnit__3.conflictingLoads            0                       # Number of conflicting loads. (Count)
system.cpu.MemDepUnit__3.conflictingStores            0                       # Number of conflicting stores. (Count)
system.cpu.branchPred.lookups                  823382                       # Number of BP lookups (Count)
system.cpu.branchPred.condPredicted            822163                       # Number of conditional branches predicted (Count)
system.cpu.branchPred.condIncorrect               720                       # Number of conditional branches incorrect (Count)
system.cpu.branchPred.BTBLookups               821220                       # Number of BTB lookups (Count)
system.cpu.branchPred.BTBHits                  820513                       # Number of BTB hits (Count)
system.cpu.branchPred.BTBHitRatio            0.999139                       # BTB Hit Ratio (Ratio)
system.cpu.branchPred.RASUsed                     282                       # Number of times the RAS was used to get a target. (Count)
system.cpu.branchPred.RASIncorrect                  0                       # Number of incorrect RAS predictions. (Count)
system.cpu.branchPred.indirectLookups             314                       # Number of indirect predictor lookups. (Count)
system.cpu.branchPred.indirectHits                 10                       # Number of indirect target hits. (Count)
system.cpu.branchPred.indirectMisses              304                       # Number of indirect misses. (Count)
system.cpu.branchPred.indirectMispredicted           93                       # Number of mispredicted indirect branches. (Count)
system.cpu.commit.commitSquashedInsts           12913                       # The number of squashed insts skipped by commit (Count)
system.cpu.commit.branchMispredicts               627                       # The number of times a branch was mispredicted (Count)
system.cpu.commit.numCommittedDist::samples      1667086                       # Number of insts commited each cycle (Count)
system.cpu.commit.numCommittedDist::mean     4.432566                       # Number of insts commited each cycle (Count)
system.cpu.commit.numCommittedDist::stdev     0.739547                       # Number of insts commited each cycle (Count)
system.cpu.commit.numCommittedDist::underflows            0      0.00%      0.00% # Number of insts commited each cycle (Count)
system.cpu.commit.numCommittedDist::0           23385      1.40%      1.40% # Number of insts commited each cycle (Count)
system.cpu.commit.numCommittedDist::1            1636      0.10%      1.50% # Number of insts commited each cycle (Count)
system.cpu.commit.numCommittedDist::2             858      0.05%      1.55% # Number of insts commited each cycle (Count)
system.cpu.commit.numCommittedDist::3            1172      0.07%      1.62% # Number of insts commited each cycle (Count)
system.cpu.commit.numCommittedDist::4          819682     49.17%     50.79% # Number of insts commited each cycle (Count)
system.cpu.commit.numCommittedDist::5          819466     49.16%     99.95% # Number of insts commited each cycle (Count)
system.cpu.commit.numCommittedDist::6             219      0.01%     99.96% # Number of insts commited each cycle (Count)
system.cpu.commit.numCommittedDist::7             115      0.01%     99.97% # Number of insts commited each cycle (Count)
system.cpu.commit.numCommittedDist::8             553      0.03%    100.00% # Number of insts commited each cycle (Count)
system.cpu.commit.numCommittedDist::overflows            0      0.00%    100.00% # Number of insts commited each cycle (Count)
system.cpu.commit.numCommittedDist::min_value            0                       # Number of insts commited each cycle (Count)
system.cpu.commit.numCommittedDist::max_value            8                       # Number of insts commited each cycle (Count)
system.cpu.commit.numCommittedDist::total      1667086                       # Number of insts commited each cycle (Count)
system.cpu.commit.instsCommitted              4104587                       # Number of instructions committed (Count)
system.cpu.commit.opsCommitted                7389469                       # Number of ops (including micro ops) committed (Count)
system.cpu.commit.memRefs                        3186                       # Number of memory references committed (Count)
system.cpu.commit.loads                          1550                       # Number of loads committed (Count)
system.cpu.commit.amos                              0                       # Number of atomic instructions committed (Count)
system.cpu.commit.membars                           0                       # Number of memory barriers committed (Count)
system.cpu.commit.branches                     821007                       # Number of branches committed (Count)
system.cpu.commit.vectorInstructions                0                       # Number of committed Vector instructions. (Count)
system.cpu.commit.floating                       1149                       # Number of committed floating point instructions. (Count)
system.cpu.commit.integer                     7388687                       # Number of committed integer instructions. (Count)
system.cpu.commit.functionCalls                   150                       # Number of function calls committed. (Count)
system.cpu.commit.committedInstType_0::No_OpClass          227      0.00%      0.00% # Class of committed instruction (Count)
system.cpu.commit.committedInstType_0::IntAlu      7385540     99.95%     99.95% # Class of committed instruction (Count)
system.cpu.commit.committedInstType_0::IntMult            5      0.00%     99.95% # Class of committed instruction (Count)
system.cpu.commit.committedInstType_0::IntDiv           21      0.00%     99.95% # Class of committed instruction (Count)
system.cpu.commit.committedInstType_0::FloatAdd          135      0.00%     99.95% # Class of committed instruction (Count)
system.cpu.commit.committedInstType_0::FloatCmp            0      0.00%     99.95% # Class of committed instruction (Count)
system.cpu.commit.committedInstType_0::FloatCvt            0      0.00%     99.95% # Class of committed instruction (Count)
system.cpu.commit.committedInstType_0::FloatMult            0      0.00%     99.95% # Class of committed instruction (Count)
system.cpu.commit.committedInstType_0::FloatMultAcc            0      0.00%     99.95% # Class of committed instruction (Count)
system.cpu.commit.committedInstType_0::FloatDiv            0      0.00%     99.95% # Class of committed instruction (Count)
system.cpu.commit.committedInstType_0::FloatMisc            0      0.00%     99.95% # Class of committed instruction (Count)
system.cpu.commit.committedInstType_0::FloatSqrt            0      0.00%     99.95% # Class of committed instruction (Count)
system.cpu.commit.committedInstType_0::SimdAdd            0      0.00%     99.95% # Class of committed instruction (Count)
system.cpu.commit.committedInstType_0::SimdAddAcc            0      0.00%     99.95% # Class of committed instruction (Count)
system.cpu.commit.committedInstType_0::SimdAlu           94      0.00%     99.95% # Class of committed instruction (Count)
system.cpu.commit.committedInstType_0::SimdCmp            0      0.00%     99.95% # Class of committed instruction (Count)
system.cpu.commit.committedInstType_0::SimdCvt           46      0.00%     99.95% # Class of committed instruction (Count)
system.cpu.commit.committedInstType_0::SimdMisc          215      0.00%     99.96% # Class of committed instruction (Count)
system.cpu.commit.committedInstType_0::SimdMult            0      0.00%     99.96% # Class of committed instruction (Count)
system.cpu.commit.committedInstType_0::SimdMultAcc            0      0.00%     99.96% # Class of committed instruction (Count)
system.cpu.commit.committedInstType_0::SimdShift            0      0.00%     99.96% # Class of committed instruction (Count)
system.cpu.commit.committedInstType_0::SimdShiftAcc            0      0.00%     99.96% # Class of committed instruction (Count)
system.cpu.commit.committedInstType_0::SimdDiv            0      0.00%     99.96% # Class of committed instruction (Count)
system.cpu.commit.committedInstType_0::SimdSqrt            0      0.00%     99.96% # Class of committed instruction (Count)
system.cpu.commit.committedInstType_0::SimdFloatAdd            0      0.00%     99.96% # Class of committed instruction (Count)
system.cpu.commit.committedInstType_0::SimdFloatAlu            0      0.00%     99.96% # Class of committed instruction (Count)
system.cpu.commit.committedInstType_0::SimdFloatCmp            0      0.00%     99.96% # Class of committed instruction (Count)
system.cpu.commit.committedInstType_0::SimdFloatCvt            0      0.00%     99.96% # Class of committed instruction (Count)
system.cpu.commit.committedInstType_0::SimdFloatDiv            0      0.00%     99.96% # Class of committed instruction (Count)
system.cpu.commit.committedInstType_0::SimdFloatMisc            0      0.00%     99.96% # Class of committed instruction (Count)
system.cpu.commit.committedInstType_0::SimdFloatMult            0      0.00%     99.96% # Class of committed instruction (Count)
system.cpu.commit.committedInstType_0::SimdFloatMultAcc            0      0.00%     99.96% # Class of committed instruction (Count)
system.cpu.commit.committedInstType_0::SimdFloatSqrt            0      0.00%     99.96% # Class of committed instruction (Count)
system.cpu.commit.committedInstType_0::SimdReduceAdd            0      0.00%     99.96% # Class of committed instruction (Count)
system.cpu.commit.committedInstType_0::SimdReduceAlu            0      0.00%     99.96% # Class of committed instruction (Count)
system.cpu.commit.committedInstType_0::SimdReduceCmp            0      0.00%     99.96% # Class of committed instruction (Count)
system.cpu.commit.committedInstType_0::SimdFloatReduceAdd            0      0.00%     99.96% # Class of committed instruction (Count)
system.cpu.commit.committedInstType_0::SimdFloatReduceCmp            0      0.00%     99.96% # Class of committed instruction (Count)
system.cpu.commit.committedInstType_0::SimdAes            0      0.00%     99.96% # Class of committed instruction (Count)
system.cpu.commit.committedInstType_0::SimdAesMix            0      0.00%     99.96% # Class of committed instruction (Count)
system.cpu.commit.committedInstType_0::SimdSha1Hash            0      0.00%     99.96% # Class of committed instruction (Count)
system.cpu.commit.committedInstType_0::SimdSha1Hash2            0      0.00%     99.96% # Class of committed instruction (Count)
system.cpu.commit.committedInstType_0::SimdSha256Hash            0      0.00%     99.96% # Class of committed instruction (Count)
system.cpu.commit.committedInstType_0::SimdSha256Hash2            0      0.00%     99.96% # Class of committed instruction (Count)
system.cpu.commit.committedInstType_0::SimdShaSigma2            0      0.00%     99.96% # Class of committed instruction (Count)
system.cpu.commit.committedInstType_0::SimdShaSigma3            0      0.00%     99.96% # Class of committed instruction (Count)
system.cpu.commit.committedInstType_0::SimdPredAlu            0      0.00%     99.96% # Class of committed instruction (Count)
system.cpu.commit.committedInstType_0::MemRead         1496      0.02%     99.98% # Class of committed instruction (Count)
system.cpu.commit.committedInstType_0::MemWrite         1170      0.02%     99.99% # Class of committed instruction (Count)
system.cpu.commit.committedInstType_0::FloatMemRead           54      0.00%     99.99% # Class of committed instruction (Count)
system.cpu.commit.committedInstType_0::FloatMemWrite          466      0.01%    100.00% # Class of committed instruction (Count)
system.cpu.commit.committedInstType_0::IprAccess            0      0.00%    100.00% # Class of committed instruction (Count)
system.cpu.commit.committedInstType_0::InstPrefetch            0      0.00%    100.00% # Class of committed instruction (Count)
system.cpu.commit.committedInstType_0::total      7389469                       # Class of committed instruction (Count)
system.cpu.commit.commitEligibleSamples           553                       # number cycles where commit BW limit reached (Cycle)
system.cpu.dcache.demandHits::cpu.data           3609                       # number of demand (read+write) hits (Count)
system.cpu.dcache.demandHits::total              3609                       # number of demand (read+write) hits (Count)
system.cpu.dcache.overallHits::cpu.data          3609                       # number of overall hits (Count)
system.cpu.dcache.overallHits::total             3609                       # number of overall hits (Count)
system.cpu.dcache.demandMisses::cpu.data          425                       # number of demand (read+write) misses (Count)
system.cpu.dcache.demandMisses::total             425                       # number of demand (read+write) misses (Count)
system.cpu.dcache.overallMisses::cpu.data          425                       # number of overall misses (Count)
system.cpu.dcache.overallMisses::total            425                       # number of overall misses (Count)
system.cpu.dcache.demandMissLatency::cpu.data     42257999                       # number of demand (read+write) miss ticks (Tick)
system.cpu.dcache.demandMissLatency::total     42257999                       # number of demand (read+write) miss ticks (Tick)
system.cpu.dcache.overallMissLatency::cpu.data     42257999                       # number of overall miss ticks (Tick)
system.cpu.dcache.overallMissLatency::total     42257999                       # number of overall miss ticks (Tick)
system.cpu.dcache.demandAccesses::cpu.data         4034                       # number of demand (read+write) accesses (Count)
system.cpu.dcache.demandAccesses::total          4034                       # number of demand (read+write) accesses (Count)
system.cpu.dcache.overallAccesses::cpu.data         4034                       # number of overall (read+write) accesses (Count)
system.cpu.dcache.overallAccesses::total         4034                       # number of overall (read+write) accesses (Count)
system.cpu.dcache.demandMissRate::cpu.data     0.105354                       # miss rate for demand accesses (Ratio)
system.cpu.dcache.demandMissRate::total      0.105354                       # miss rate for demand accesses (Ratio)
system.cpu.dcache.overallMissRate::cpu.data     0.105354                       # miss rate for overall accesses (Ratio)
system.cpu.dcache.overallMissRate::total     0.105354                       # miss rate for overall accesses (Ratio)
system.cpu.dcache.demandAvgMissLatency::cpu.data 99430.585882                       # average overall miss latency ((Cycle/Count))
system.cpu.dcache.demandAvgMissLatency::total 99430.585882                       # average overall miss latency ((Cycle/Count))
system.cpu.dcache.overallAvgMissLatency::cpu.data 99430.585882                       # average overall miss latency ((Cycle/Count))
system.cpu.dcache.overallAvgMissLatency::total 99430.585882                       # average overall miss latency ((Cycle/Count))
system.cpu.dcache.blockedCycles::no_mshrs          467                       # number of cycles access was blocked (Cycle)
system.cpu.dcache.blockedCycles::no_targets            0                       # number of cycles access was blocked (Cycle)
system.cpu.dcache.blockedCauses::no_mshrs           18                       # number of times access was blocked (Count)
system.cpu.dcache.blockedCauses::no_targets            0                       # number of times access was blocked (Count)
system.cpu.dcache.avgBlocked::no_mshrs      25.944444                       # average number of cycles each access was blocked ((Cycle/Count))
system.cpu.dcache.avgBlocked::no_targets          nan                       # average number of cycles each access was blocked ((Cycle/Count))
system.cpu.dcache.writebacks::writebacks            7                       # number of writebacks (Count)
system.cpu.dcache.writebacks::total                 7                       # number of writebacks (Count)
system.cpu.dcache.demandMshrHits::cpu.data          157                       # number of demand (read+write) MSHR hits (Count)
system.cpu.dcache.demandMshrHits::total           157                       # number of demand (read+write) MSHR hits (Count)
system.cpu.dcache.overallMshrHits::cpu.data          157                       # number of overall MSHR hits (Count)
system.cpu.dcache.overallMshrHits::total          157                       # number of overall MSHR hits (Count)
system.cpu.dcache.demandMshrMisses::cpu.data          268                       # number of demand (read+write) MSHR misses (Count)
system.cpu.dcache.demandMshrMisses::total          268                       # number of demand (read+write) MSHR misses (Count)
system.cpu.dcache.overallMshrMisses::cpu.data          268                       # number of overall MSHR misses (Count)
system.cpu.dcache.overallMshrMisses::total          268                       # number of overall MSHR misses (Count)
system.cpu.dcache.demandMshrMissLatency::cpu.data     28498999                       # number of demand (read+write) MSHR miss ticks (Tick)
system.cpu.dcache.demandMshrMissLatency::total     28498999                       # number of demand (read+write) MSHR miss ticks (Tick)
system.cpu.dcache.overallMshrMissLatency::cpu.data     28498999                       # number of overall MSHR miss ticks (Tick)
system.cpu.dcache.overallMshrMissLatency::total     28498999                       # number of overall MSHR miss ticks (Tick)
system.cpu.dcache.demandMshrMissRate::cpu.data     0.066435                       # mshr miss ratio for demand accesses (Ratio)
system.cpu.dcache.demandMshrMissRate::total     0.066435                       # mshr miss ratio for demand accesses (Ratio)
system.cpu.dcache.overallMshrMissRate::cpu.data     0.066435                       # mshr miss ratio for overall accesses (Ratio)
system.cpu.dcache.overallMshrMissRate::total     0.066435                       # mshr miss ratio for overall accesses (Ratio)
system.cpu.dcache.demandAvgMshrMissLatency::cpu.data 106339.548507                       # average overall mshr miss latency ((Cycle/Count))
system.cpu.dcache.demandAvgMshrMissLatency::total 106339.548507                       # average overall mshr miss latency ((Cycle/Count))
system.cpu.dcache.overallAvgMshrMissLatency::cpu.data 106339.548507                       # average overall mshr miss latency ((Cycle/Count))
system.cpu.dcache.overallAvgMshrMissLatency::total 106339.548507                       # average overall mshr miss latency ((Cycle/Count))
system.cpu.dcache.replacements                      7                       # number of replacements (Count)
system.cpu.dcache.ReadReq.hits::cpu.data         2117                       # number of ReadReq hits (Count)
system.cpu.dcache.ReadReq.hits::total            2117                       # number of ReadReq hits (Count)
system.cpu.dcache.ReadReq.misses::cpu.data          280                       # number of ReadReq misses (Count)
system.cpu.dcache.ReadReq.misses::total           280                       # number of ReadReq misses (Count)
system.cpu.dcache.ReadReq.missLatency::cpu.data     27623000                       # number of ReadReq miss ticks (Tick)
system.cpu.dcache.ReadReq.missLatency::total     27623000                       # number of ReadReq miss ticks (Tick)
system.cpu.dcache.ReadReq.accesses::cpu.data         2397                       # number of ReadReq accesses(hits+misses) (Count)
system.cpu.dcache.ReadReq.accesses::total         2397                       # number of ReadReq accesses(hits+misses) (Count)
system.cpu.dcache.ReadReq.missRate::cpu.data     0.116813                       # miss rate for ReadReq accesses (Ratio)
system.cpu.dcache.ReadReq.missRate::total     0.116813                       # miss rate for ReadReq accesses (Ratio)
system.cpu.dcache.ReadReq.avgMissLatency::cpu.data 98653.571429                       # average ReadReq miss latency ((Tick/Count))
system.cpu.dcache.ReadReq.avgMissLatency::total 98653.571429                       # average ReadReq miss latency ((Tick/Count))
system.cpu.dcache.ReadReq.mshrHits::cpu.data          155                       # number of ReadReq MSHR hits (Count)
system.cpu.dcache.ReadReq.mshrHits::total          155                       # number of ReadReq MSHR hits (Count)
system.cpu.dcache.ReadReq.mshrMisses::cpu.data          125                       # number of ReadReq MSHR misses (Count)
system.cpu.dcache.ReadReq.mshrMisses::total          125                       # number of ReadReq MSHR misses (Count)
system.cpu.dcache.ReadReq.mshrMissLatency::cpu.data     14154000                       # number of ReadReq MSHR miss ticks (Tick)
system.cpu.dcache.ReadReq.mshrMissLatency::total     14154000                       # number of ReadReq MSHR miss ticks (Tick)
system.cpu.dcache.ReadReq.mshrMissRate::cpu.data     0.052149                       # mshr miss rate for ReadReq accesses (Ratio)
system.cpu.dcache.ReadReq.mshrMissRate::total     0.052149                       # mshr miss rate for ReadReq accesses (Ratio)
system.cpu.dcache.ReadReq.avgMshrMissLatency::cpu.data       113232                       # average ReadReq mshr miss latency ((Tick/Count))
system.cpu.dcache.ReadReq.avgMshrMissLatency::total       113232                       # average ReadReq mshr miss latency ((Tick/Count))
system.cpu.dcache.WriteReq.hits::cpu.data         1492                       # number of WriteReq hits (Count)
system.cpu.dcache.WriteReq.hits::total           1492                       # number of WriteReq hits (Count)
system.cpu.dcache.WriteReq.misses::cpu.data          145                       # number of WriteReq misses (Count)
system.cpu.dcache.WriteReq.misses::total          145                       # number of WriteReq misses (Count)
system.cpu.dcache.WriteReq.missLatency::cpu.data     14634999                       # number of WriteReq miss ticks (Tick)
system.cpu.dcache.WriteReq.missLatency::total     14634999                       # number of WriteReq miss ticks (Tick)
system.cpu.dcache.WriteReq.accesses::cpu.data         1637                       # number of WriteReq accesses(hits+misses) (Count)
system.cpu.dcache.WriteReq.accesses::total         1637                       # number of WriteReq accesses(hits+misses) (Count)
system.cpu.dcache.WriteReq.missRate::cpu.data     0.088577                       # miss rate for WriteReq accesses (Ratio)
system.cpu.dcache.WriteReq.missRate::total     0.088577                       # miss rate for WriteReq accesses (Ratio)
system.cpu.dcache.WriteReq.avgMissLatency::cpu.data 100931.027586                       # average WriteReq miss latency ((Tick/Count))
system.cpu.dcache.WriteReq.avgMissLatency::total 100931.027586                       # average WriteReq miss latency ((Tick/Count))
system.cpu.dcache.WriteReq.mshrHits::cpu.data            2                       # number of WriteReq MSHR hits (Count)
system.cpu.dcache.WriteReq.mshrHits::total            2                       # number of WriteReq MSHR hits (Count)
system.cpu.dcache.WriteReq.mshrMisses::cpu.data          143                       # number of WriteReq MSHR misses (Count)
system.cpu.dcache.WriteReq.mshrMisses::total          143                       # number of WriteReq MSHR misses (Count)
system.cpu.dcache.WriteReq.mshrMissLatency::cpu.data     14344999                       # number of WriteReq MSHR miss ticks (Tick)
system.cpu.dcache.WriteReq.mshrMissLatency::total     14344999                       # number of WriteReq MSHR miss ticks (Tick)
system.cpu.dcache.WriteReq.mshrMissRate::cpu.data     0.087355                       # mshr miss rate for WriteReq accesses (Ratio)
system.cpu.dcache.WriteReq.mshrMissRate::total     0.087355                       # mshr miss rate for WriteReq accesses (Ratio)
system.cpu.dcache.WriteReq.avgMshrMissLatency::cpu.data 100314.678322                       # average WriteReq mshr miss latency ((Tick/Count))
system.cpu.dcache.WriteReq.avgMshrMissLatency::total 100314.678322                       # average WriteReq mshr miss latency ((Tick/Count))
system.cpu.dcache.power_state.pwrStateResidencyTicks::UNDEFINED   1689510000                       # Cumulative time (in ticks) in various power states (Tick)
system.cpu.dcache.tags.tagsInUse           211.556005                       # Average ticks per tags in use ((Tick/Count))
system.cpu.dcache.tags.totalRefs                 3879                       # Total number of references to valid blocks. (Count)
system.cpu.dcache.tags.sampledRefs                239                       # Sample count of references to valid blocks. (Count)
system.cpu.dcache.tags.avgRefs              16.230126                       # Average number of references to valid blocks. ((Count/Count))
system.cpu.dcache.tags.warmupTick              225000                       # The tick when the warmup percentage was hit. (Tick)
system.cpu.dcache.tags.occupancies::cpu.data   211.556005                       # Average occupied blocks per tick, per requestor ((Count/Tick))
system.cpu.dcache.tags.avgOccs::cpu.data     0.413195                       # Average percentage of cache occupancy ((Ratio/Tick))
system.cpu.dcache.tags.avgOccs::total        0.413195                       # Average percentage of cache occupancy ((Ratio/Tick))
system.cpu.dcache.tags.occupanciesTaskId::1024          232                       # Occupied blocks per task id (Count)
system.cpu.dcache.tags.ageTaskId_1024::0           18                       # Occupied blocks per task id, per block age (Count)
system.cpu.dcache.tags.ageTaskId_1024::3          214                       # Occupied blocks per task id, per block age (Count)
system.cpu.dcache.tags.ratioOccsTaskId::1024     0.453125                       # Ratio of occupied blocks and all blocks, per task id (Ratio)
system.cpu.dcache.tags.tagAccesses               8307                       # Number of tag accesses (Count)
system.cpu.dcache.tags.dataAccesses              8307                       # Number of data accesses (Count)
system.cpu.dcache.tags.power_state.pwrStateResidencyTicks::UNDEFINED   1689510000                       # Cumulative time (in ticks) in various power states (Tick)
system.cpu.decode.idleCycles                    16291                       # Number of cycles decode is idle (Cycle)
system.cpu.decode.blockedCycles                  8393                       # Number of cycles decode is blocked (Cycle)
system.cpu.decode.runCycles                   1643339                       # Number of cycles decode is running (Cycle)
system.cpu.decode.unblockCycles                   514                       # Number of cycles decode is unblocking (Cycle)
system.cpu.decode.squashCycles                    651                       # Number of cycles decode is squashing (Cycle)
system.cpu.decode.branchResolved               820622                       # Number of times decode resolved a branch (Count)
system.cpu.decode.branchMispred                   223                       # Number of times decode detected a branch misprediction (Count)
system.cpu.decode.decodedInsts                7406711                       # Number of instructions handled by decode (Count)
system.cpu.decode.squashedInsts                  1103                       # Number of squashed instructions handled by decode (Count)
system.cpu.fetch.icacheStallCycles              16547                       # Number of cycles fetch is stalled on an Icache miss (Cycle)
system.cpu.fetch.insts                        4115839                       # Number of instructions fetch has processed (Count)
system.cpu.fetch.branches                      823382                       # Number of branches that fetch encountered (Count)
system.cpu.fetch.predictedBranches             820805                       # Number of branches that fetch has predicted taken (Count)
system.cpu.fetch.cycles                       1650796                       # Number of cycles fetch has run and was not squashing or blocked (Cycle)
system.cpu.fetch.squashCycles                    1738                       # Number of cycles fetch has spent squashing (Cycle)
system.cpu.fetch.miscStallCycles                  140                       # Number of cycles fetch has spent waiting on interrupts, or bad addresses, or out of MSHRs (Cycle)
system.cpu.fetch.pendingTrapStallCycles           834                       # Number of stall cycles due to pending traps (Cycle)
system.cpu.fetch.pendingQuiesceStallCycles            2                       # Number of stall cycles due to pending quiesce instructions (Cycle)
system.cpu.fetch.cacheLines                      3109                       # Number of cache lines fetched (Count)
system.cpu.fetch.icacheSquashes                   377                       # Number of outstanding Icache misses that were squashed (Count)
system.cpu.fetch.nisnDist::samples            1669188                       # Number of instructions fetched each cycle (Total) (Count)
system.cpu.fetch.nisnDist::mean              4.439486                       # Number of instructions fetched each cycle (Total) (Count)
system.cpu.fetch.nisnDist::stdev             3.514507                       # Number of instructions fetched each cycle (Total) (Count)
system.cpu.fetch.nisnDist::underflows               0      0.00%      0.00% # Number of instructions fetched each cycle (Total) (Count)
system.cpu.fetch.nisnDist::0                    24702      1.48%      1.48% # Number of instructions fetched each cycle (Total) (Count)
system.cpu.fetch.nisnDist::1                   819644     49.10%     50.58% # Number of instructions fetched each cycle (Total) (Count)
system.cpu.fetch.nisnDist::2                      304      0.02%     50.60% # Number of instructions fetched each cycle (Total) (Count)
system.cpu.fetch.nisnDist::3                      351      0.02%     50.62% # Number of instructions fetched each cycle (Total) (Count)
system.cpu.fetch.nisnDist::4                      692      0.04%     50.66% # Number of instructions fetched each cycle (Total) (Count)
system.cpu.fetch.nisnDist::5                      268      0.02%     50.68% # Number of instructions fetched each cycle (Total) (Count)
system.cpu.fetch.nisnDist::6                      274      0.02%     50.70% # Number of instructions fetched each cycle (Total) (Count)
system.cpu.fetch.nisnDist::7                      344      0.02%     50.72% # Number of instructions fetched each cycle (Total) (Count)
system.cpu.fetch.nisnDist::8                   822609     49.28%    100.00% # Number of instructions fetched each cycle (Total) (Count)
system.cpu.fetch.nisnDist::overflows                0      0.00%    100.00% # Number of instructions fetched each cycle (Total) (Count)
system.cpu.fetch.nisnDist::min_value                0                       # Number of instructions fetched each cycle (Total) (Count)
system.cpu.fetch.nisnDist::max_value                8                       # Number of instructions fetched each cycle (Total) (Count)
system.cpu.fetch.nisnDist::total              1669188                       # Number of instructions fetched each cycle (Total) (Count)
system.cpu.fetch.branchRate                  0.487349                       # Number of branch fetches per cycle (Ratio)
system.cpu.fetch.rate                        2.436113                       # Number of inst fetches per cycle ((Count/Cycle))
system.cpu.icache.demandHits::cpu.inst           2504                       # number of demand (read+write) hits (Count)
system.cpu.icache.demandHits::total              2504                       # number of demand (read+write) hits (Count)
system.cpu.icache.overallHits::cpu.inst          2504                       # number of overall hits (Count)
system.cpu.icache.overallHits::total             2504                       # number of overall hits (Count)
system.cpu.icache.demandMisses::cpu.inst          605                       # number of demand (read+write) misses (Count)
system.cpu.icache.demandMisses::total             605                       # number of demand (read+write) misses (Count)
system.cpu.icache.overallMisses::cpu.inst          605                       # number of overall misses (Count)
system.cpu.icache.overallMisses::total            605                       # number of overall misses (Count)
system.cpu.icache.demandMissLatency::cpu.inst     62369000                       # number of demand (read+write) miss ticks (Tick)
system.cpu.icache.demandMissLatency::total     62369000                       # number of demand (read+write) miss ticks (Tick)
system.cpu.icache.overallMissLatency::cpu.inst     62369000                       # number of overall miss ticks (Tick)
system.cpu.icache.overallMissLatency::total     62369000                       # number of overall miss ticks (Tick)
system.cpu.icache.demandAccesses::cpu.inst         3109                       # number of demand (read+write) accesses (Count)
system.cpu.icache.demandAccesses::total          3109                       # number of demand (read+write) accesses (Count)
system.cpu.icache.overallAccesses::cpu.inst         3109                       # number of overall (read+write) accesses (Count)
system.cpu.icache.overallAccesses::total         3109                       # number of overall (read+write) accesses (Count)
system.cpu.icache.demandMissRate::cpu.inst     0.194596                       # miss rate for demand accesses (Ratio)
system.cpu.icache.demandMissRate::total      0.194596                       # miss rate for demand accesses (Ratio)
system.cpu.icache.overallMissRate::cpu.inst     0.194596                       # miss rate for overall accesses (Ratio)
system.cpu.icache.overallMissRate::total     0.194596                       # miss rate for overall accesses (Ratio)
system.cpu.icache.demandAvgMissLatency::cpu.inst 103089.256198                       # average overall miss latency ((Cycle/Count))
system.cpu.icache.demandAvgMissLatency::total 103089.256198                       # average overall miss latency ((Cycle/Count))
system.cpu.icache.overallAvgMissLatency::cpu.inst 103089.256198                       # average overall miss latency ((Cycle/Count))
system.cpu.icache.overallAvgMissLatency::total 103089.256198                       # average overall miss latency ((Cycle/Count))
system.cpu.icache.blockedCycles::no_mshrs           37                       # number of cycles access was blocked (Cycle)
system.cpu.icache.blockedCycles::no_targets            0                       # number of cycles access was blocked (Cycle)
system.cpu.icache.blockedCauses::no_mshrs            1                       # number of times access was blocked (Count)
system.cpu.icache.blockedCauses::no_targets            0                       # number of times access was blocked (Count)
system.cpu.icache.avgBlocked::no_mshrs             37                       # average number of cycles each access was blocked ((Cycle/Count))
system.cpu.icache.avgBlocked::no_targets          nan                       # average number of cycles each access was blocked ((Cycle/Count))
system.cpu.icache.demandMshrHits::cpu.inst          129                       # number of demand (read+write) MSHR hits (Count)
system.cpu.icache.demandMshrHits::total           129                       # number of demand (read+write) MSHR hits (Count)
system.cpu.icache.overallMshrHits::cpu.inst          129                       # number of overall MSHR hits (Count)
system.cpu.icache.overallMshrHits::total          129                       # number of overall MSHR hits (Count)
system.cpu.icache.demandMshrMisses::cpu.inst          476                       # number of demand (read+write) MSHR misses (Count)
system.cpu.icache.demandMshrMisses::total          476                       # number of demand (read+write) MSHR misses (Count)
system.cpu.icache.overallMshrMisses::cpu.inst          476                       # number of overall MSHR misses (Count)
system.cpu.icache.overallMshrMisses::total          476                       # number of overall MSHR misses (Count)
system.cpu.icache.demandMshrMissLatency::cpu.inst     50193000                       # number of demand (read+write) MSHR miss ticks (Tick)
system.cpu.icache.demandMshrMissLatency::total     50193000                       # number of demand (read+write) MSHR miss ticks (Tick)
system.cpu.icache.overallMshrMissLatency::cpu.inst     50193000                       # number of overall MSHR miss ticks (Tick)
system.cpu.icache.overallMshrMissLatency::total     50193000                       # number of overall MSHR miss ticks (Tick)
system.cpu.icache.demandMshrMissRate::cpu.inst     0.153104                       # mshr miss ratio for demand accesses (Ratio)
system.cpu.icache.demandMshrMissRate::total     0.153104                       # mshr miss ratio for demand accesses (Ratio)
system.cpu.icache.overallMshrMissRate::cpu.inst     0.153104                       # mshr miss ratio for overall accesses (Ratio)
system.cpu.icache.overallMshrMissRate::total     0.153104                       # mshr miss ratio for overall accesses (Ratio)
system.cpu.icache.demandAvgMshrMissLatency::cpu.inst 105447.478992                       # average overall mshr miss latency ((Cycle/Count))
system.cpu.icache.demandAvgMshrMissLatency::total 105447.478992                       # average overall mshr miss latency ((Cycle/Count))
system.cpu.icache.overallAvgMshrMissLatency::cpu.inst 105447.478992                       # average overall mshr miss latency ((Cycle/Count))
system.cpu.icache.overallAvgMshrMissLatency::total 105447.478992                       # average overall mshr miss latency ((Cycle/Count))
system.cpu.icache.replacements                    232                       # number of replacements (Count)
system.cpu.icache.ReadReq.hits::cpu.inst         2504                       # number of ReadReq hits (Count)
system.cpu.icache.ReadReq.hits::total            2504                       # number of ReadReq hits (Count)
system.cpu.icache.ReadReq.misses::cpu.inst          605                       # number of ReadReq misses (Count)
system.cpu.icache.ReadReq.misses::total           605                       # number of ReadReq misses (Count)
system.cpu.icache.ReadReq.missLatency::cpu.inst     62369000                       # number of ReadReq miss ticks (Tick)
system.cpu.icache.ReadReq.missLatency::total     62369000                       # number of ReadReq miss ticks (Tick)
system.cpu.icache.ReadReq.accesses::cpu.inst         3109                       # number of ReadReq accesses(hits+misses) (Count)
system.cpu.icache.ReadReq.accesses::total         3109                       # number of ReadReq accesses(hits+misses) (Count)
system.cpu.icache.ReadReq.missRate::cpu.inst     0.194596                       # miss rate for ReadReq accesses (Ratio)
system.cpu.icache.ReadReq.missRate::total     0.194596                       # miss rate for ReadReq accesses (Ratio)
system.cpu.icache.ReadReq.avgMissLatency::cpu.inst 103089.256198                       # average ReadReq miss latency ((Tick/Count))
system.cpu.icache.ReadReq.avgMissLatency::total 103089.256198                       # average ReadReq miss latency ((Tick/Count))
system.cpu.icache.ReadReq.mshrHits::cpu.inst          129                       # number of ReadReq MSHR hits (Count)
system.cpu.icache.ReadReq.mshrHits::total          129                       # number of ReadReq MSHR hits (Count)
system.cpu.icache.ReadReq.mshrMisses::cpu.inst          476                       # number of ReadReq MSHR misses (Count)
system.cpu.icache.ReadReq.mshrMisses::total          476                       # number of ReadReq MSHR misses (Count)
system.cpu.icache.ReadReq.mshrMissLatency::cpu.inst     50193000                       # number of ReadReq MSHR miss ticks (Tick)
system.cpu.icache.ReadReq.mshrMissLatency::total     50193000                       # number of ReadReq MSHR miss ticks (Tick)
system.cpu.icache.ReadReq.mshrMissRate::cpu.inst     0.153104                       # mshr miss rate for ReadReq accesses (Ratio)
system.cpu.icache.ReadReq.mshrMissRate::total     0.153104                       # mshr miss rate for ReadReq accesses (Ratio)
system.cpu.icache.ReadReq.avgMshrMissLatency::cpu.inst 105447.478992                       # average ReadReq mshr miss latency ((Tick/Count))
system.cpu.icache.ReadReq.avgMshrMissLatency::total 105447.478992                       # average ReadReq mshr miss latency ((Tick/Count))
system.cpu.icache.power_state.pwrStateResidencyTicks::UNDEFINED   1689510000                       # Cumulative time (in ticks) in various power states (Tick)
system.cpu.icache.tags.tagsInUse           239.489306                       # Average ticks per tags in use ((Tick/Count))
system.cpu.icache.tags.totalRefs                 2980                       # Total number of references to valid blocks. (Count)
system.cpu.icache.tags.sampledRefs                476                       # Sample count of references to valid blocks. (Count)
system.cpu.icache.tags.avgRefs               6.260504                       # Average number of references to valid blocks. ((Count/Count))
system.cpu.icache.tags.warmupTick              107000                       # The tick when the warmup percentage was hit. (Tick)
system.cpu.icache.tags.occupancies::cpu.inst   239.489306                       # Average occupied blocks per tick, per requestor ((Count/Tick))
system.cpu.icache.tags.avgOccs::cpu.inst     0.935505                       # Average percentage of cache occupancy ((Ratio/Tick))
system.cpu.icache.tags.avgOccs::total        0.935505                       # Average percentage of cache occupancy ((Ratio/Tick))
system.cpu.icache.tags.occupanciesTaskId::1024          244                       # Occupied blocks per task id (Count)
system.cpu.icache.tags.ageTaskId_1024::0           39                       # Occupied blocks per task id, per block age (Count)
system.cpu.icache.tags.ageTaskId_1024::3          205                       # Occupied blocks per task id, per block age (Count)
system.cpu.icache.tags.ratioOccsTaskId::1024     0.953125                       # Ratio of occupied blocks and all blocks, per task id (Ratio)
system.cpu.icache.tags.tagAccesses               6694                       # Number of tag accesses (Count)
system.cpu.icache.tags.dataAccesses              6694                       # Number of data accesses (Count)
system.cpu.icache.tags.power_state.pwrStateResidencyTicks::UNDEFINED   1689510000                       # Cumulative time (in ticks) in various power states (Tick)
system.cpu.interrupts.clk_domain.clock          16000                       # Clock period in ticks (Tick)
system.cpu.lsq0.forwLoads                         200                       # Number of loads that had data forwarded from stores (Count)
system.cpu.lsq0.squashedLoads                    1549                       # Number of loads squashed (Count)
system.cpu.lsq0.ignoredResponses                    7                       # Number of memory responses ignored because the instruction is squashed (Count)
system.cpu.lsq0.memOrderViolation                  21                       # Number of memory ordering violations (Count)
system.cpu.lsq0.squashedStores                    957                       # Number of stores squashed (Count)
system.cpu.lsq0.rescheduledLoads                    0                       # Number of loads that were rescheduled (Count)
system.cpu.lsq0.blockedByCache                     15                       # Number of times an access to memory failed due to the cache being blocked (Count)
system.cpu.lsq0.loadToUse::samples               1550                       # Distribution of cycle latency between the first time a load is issued and its completion (Unspecified)
system.cpu.lsq0.loadToUse::mean             12.916774                       # Distribution of cycle latency between the first time a load is issued and its completion (Unspecified)
system.cpu.lsq0.loadToUse::stdev            34.164606                       # Distribution of cycle latency between the first time a load is issued and its completion (Unspecified)
system.cpu.lsq0.loadToUse::0-9                   1412     91.10%     91.10% # Distribution of cycle latency between the first time a load is issued and its completion (Unspecified)
system.cpu.lsq0.loadToUse::10-19                    3      0.19%     91.29% # Distribution of cycle latency between the first time a load is issued and its completion (Unspecified)
system.cpu.lsq0.loadToUse::20-29                    1      0.06%     91.35% # Distribution of cycle latency between the first time a load is issued and its completion (Unspecified)
system.cpu.lsq0.loadToUse::30-39                    2      0.13%     91.48% # Distribution of cycle latency between the first time a load is issued and its completion (Unspecified)
system.cpu.lsq0.loadToUse::40-49                    1      0.06%     91.55% # Distribution of cycle latency between the first time a load is issued and its completion (Unspecified)
system.cpu.lsq0.loadToUse::50-59                    3      0.19%     91.74% # Distribution of cycle latency between the first time a load is issued and its completion (Unspecified)
system.cpu.lsq0.loadToUse::60-69                    1      0.06%     91.81% # Distribution of cycle latency between the first time a load is issued and its completion (Unspecified)
system.cpu.lsq0.loadToUse::70-79                    2      0.13%     91.94% # Distribution of cycle latency between the first time a load is issued and its completion (Unspecified)
system.cpu.lsq0.loadToUse::80-89                    5      0.32%     92.26% # Distribution of cycle latency between the first time a load is issued and its completion (Unspecified)
system.cpu.lsq0.loadToUse::90-99                   24      1.55%     93.81% # Distribution of cycle latency between the first time a load is issued and its completion (Unspecified)
system.cpu.lsq0.loadToUse::100-109                 26      1.68%     95.48% # Distribution of cycle latency between the first time a load is issued and its completion (Unspecified)
system.cpu.lsq0.loadToUse::110-119                 18      1.16%     96.65% # Distribution of cycle latency between the first time a load is issued and its completion (Unspecified)
system.cpu.lsq0.loadToUse::120-129                 35      2.26%     98.90% # Distribution of cycle latency between the first time a load is issued and its completion (Unspecified)
system.cpu.lsq0.loadToUse::130-139                  8      0.52%     99.42% # Distribution of cycle latency between the first time a load is issued and its completion (Unspecified)
system.cpu.lsq0.loadToUse::140-149                  2      0.13%     99.55% # Distribution of cycle latency between the first time a load is issued and its completion (Unspecified)
system.cpu.lsq0.loadToUse::210-219                  3      0.19%     99.74% # Distribution of cycle latency between the first time a load is issued and its completion (Unspecified)
system.cpu.lsq0.loadToUse::220-229                  2      0.13%     99.87% # Distribution of cycle latency between the first time a load is issued and its completion (Unspecified)
system.cpu.lsq0.loadToUse::overflows                2      0.13%    100.00% # Distribution of cycle latency between the first time a load is issued and its completion (Unspecified)
system.cpu.lsq0.loadToUse::min_value                2                       # Distribution of cycle latency between the first time a load is issued and its completion (Unspecified)
system.cpu.lsq0.loadToUse::max_value              360                       # Distribution of cycle latency between the first time a load is issued and its completion (Unspecified)
system.cpu.lsq0.loadToUse::total                 1550                       # Distribution of cycle latency between the first time a load is issued and its completion (Unspecified)
system.cpu.mmu.dtb.rdAccesses                    2667                       # TLB accesses on read requests (Count)
system.cpu.mmu.dtb.wrAccesses                    2168                       # TLB accesses on write requests (Count)
system.cpu.mmu.dtb.rdMisses                        78                       # TLB misses on read requests (Count)
system.cpu.mmu.dtb.wrMisses                        22                       # TLB misses on write requests (Count)
system.cpu.mmu.dtb.walker.power_state.pwrStateResidencyTicks::UNDEFINED   1689510000                       # Cumulative time (in ticks) in various power states (Tick)
system.cpu.mmu.itb.rdAccesses                       0                       # TLB accesses on read requests (Count)
system.cpu.mmu.itb.wrAccesses                    3255                       # TLB accesses on write requests (Count)
system.cpu.mmu.itb.rdMisses                         0                       # TLB misses on read requests (Count)
system.cpu.mmu.itb.wrMisses                       189                       # TLB misses on write requests (Count)
system.cpu.mmu.itb.walker.power_state.pwrStateResidencyTicks::UNDEFINED   1689510000                       # Cumulative time (in ticks) in various power states (Tick)
system.cpu.power_state.pwrStateResidencyTicks::ON   1689510000                       # Cumulative time (in ticks) in various power states (Tick)
system.cpu.rename.squashCycles                    651                       # Number of cycles rename is squashing (Cycle)
system.cpu.rename.idleCycles                    16766                       # Number of cycles rename is idle (Cycle)
system.cpu.rename.blockCycles                    2862                       # Number of cycles rename is blocking (Cycle)
system.cpu.rename.serializeStallCycles             30                       # count of cycles rename stalled for serializing inst (Cycle)
system.cpu.rename.runCycles                   1643315                       # Number of cycles rename is running (Cycle)
system.cpu.rename.unblockCycles                  5564                       # Number of cycles rename is unblocking (Cycle)
system.cpu.rename.renamedInsts                7405325                       # Number of instructions processed by rename (Count)
system.cpu.rename.ROBFullEvents                     9                       # Number of times rename has blocked due to ROB full (Count)
system.cpu.rename.IQFullEvents                    126                       # Number of times rename has blocked due to IQ full (Count)
system.cpu.rename.SQFullEvents                   5313                       # Number of times rename has blocked due to SQ full (Count)
[...]
system.victimbus.transDist::ReadExResp            114                       # Transaction distribution (Count)
system.victimbus.transDist::ReadSharedReq          125                       # Transaction distribution (Count)
system.victimbus.pktCount_system.cpu.dcache.mem_side_port::system.victimcache.cpu_side_port          547                       # Packet count per connected requestor and responder (Count)
system.victimbus.pktSize_system.cpu.dcache.mem_side_port::system.victimcache.cpu_side_port        15744                       # Cumulative packet size per connected requestor and responder (Byte)
system.victimbus.snoops                           238                       # Total snoops (Count)
system.victimbus.snoopTraffic                   15232                       # Total snoop traffic (Byte)
system.victimbus.snoopFanout::samples             508                       # Request fanout histogram (Count)
system.victimbus.snoopFanout::mean           0.468504                       # Request fanout histogram (Count)
system.victimbus.snoopFanout::stdev          0.499499                       # Request fanout histogram (Count)
system.victimbus.snoopFanout::underflows            0      0.00%      0.00% # Request fanout histogram (Count)
system.victimbus.snoopFanout::0                   270     53.15%     53.15% # Request fanout histogram (Count)
system.victimbus.snoopFanout::1                   238     46.85%    100.00% # Request fanout histogram (Count)
system.victimbus.snoopFanout::overflows             0      0.00%    100.00% # Request fanout histogram (Count)
system.victimbus.snoopFanout::min_value             0                       # Request fanout histogram (Count)
system.victimbus.snoopFanout::max_value             1                       # Request fanout histogram (Count)
system.victimbus.snoopFanout::total               508                       # Request fanout histogram (Count)
system.victimbus.power_state.pwrStateResidencyTicks::UNDEFINED   1689510000                       # Cumulative time (in ticks) in various power states (Tick)
system.victimbus.reqLayer0.occupancy           284000                       # Layer occupancy (ticks) (Tick)
system.victimbus.reqLayer0.utilization            0.0                       # Layer utilization (Ratio)
system.victimbus.respLayer0.occupancy          778730                       # Layer occupancy (ticks) (Tick)
system.victimbus.respLayer0.utilization           0.0                       # Layer utilization (Ratio)
system.victimbus.snoop_filter.totRequests          277                       # Total number of requests made to the snoop filter. (Count)
system.victimbus.snoop_filter.hitSingleRequests           38                       # Number of requests hitting in the snoop filter with a single holder of the requested data. (Count)
system.victimbus.snoop_filter.hitMultiRequests            0                       # Number of requests hitting in the snoop filter with multiple (>1) holders of the requested data. (Count)
system.victimbus.snoop_filter.totSnoops           238                       # Total number of snoops made to the snoop filter. (Count)
system.victimbus.snoop_filter.hitSingleSnoops          238                       # Number of snoops hitting in the snoop filter with a single holder of the requested data. (Count)
system.victimbus.snoop_filter.hitMultiSnoops            0                       # Number of snoops hitting in the snoop filter with multiple (>1) holders of the requested data. (Count)
system.victimcache.demandHits::cpu.data             1                       # number of demand (read+write) hits (Count)
system.victimcache.demandHits::total                1                       # number of demand (read+write) hits (Count)
system.victimcache.overallHits::cpu.data            1                       # number of overall hits (Count)
system.victimcache.overallHits::total               1                       # number of overall hits (Count)
system.victimcache.demandMisses::cpu.data          238                       # number of demand (read+write) misses (Count)
system.victimcache.demandMisses::total            238                       # number of demand (read+write) misses (Count)
system.victimcache.overallMisses::cpu.data          238                       # number of overall misses (Count)
system.victimcache.overallMisses::total           238                       # number of overall misses (Count)
system.victimcache.demandMissLatency::cpu.data     25988000                       # number of demand (read+write) miss ticks (Tick)
system.victimcache.demandMissLatency::total     25988000                       # number of demand (read+write) miss ticks (Tick)
system.victimcache.overallMissLatency::cpu.data     25988000                       # number of overall miss ticks (Tick)
system.victimcache.overallMissLatency::total     25988000                       # number of overall miss ticks (Tick)
system.victimcache.demandAccesses::cpu.data          239                       # number of demand (read+write) accesses (Count)
system.victimcache.demandAccesses::total          239                       # number of demand (read+write) accesses (Count)
system.victimcache.overallAccesses::cpu.data          239                       # number of overall (read+write) accesses (Count)
system.victimcache.overallAccesses::total          239                       # number of overall (read+write) accesses (Count)
system.victimcache.demandMissRate::cpu.data     0.995816                       # miss rate for demand accesses (Ratio)
system.victimcache.demandMissRate::total     0.995816                       # miss rate for demand accesses (Ratio)
system.victimcache.overallMissRate::cpu.data     0.995816                       # miss rate for overall accesses (Ratio)
system.victimcache.overallMissRate::total     0.995816                       # miss rate for overall accesses (Ratio)
system.victimcache.demandAvgMissLatency::cpu.data 109193.277311                       # average overall miss latency ((Cycle/Count))
system.victimcache.demandAvgMissLatency::total 109193.277311                       # average overall miss latency ((Cycle/Count))
system.victimcache.overallAvgMissLatency::cpu.data 109193.277311                       # average overall miss latency ((Cycle/Count))
system.victimcache.overallAvgMissLatency::total 109193.277311                       # average overall miss latency ((Cycle/Count))
system.victimcache.blockedCycles::no_mshrs          415                       # number of cycles access was blocked (Cycle)
system.victimcache.blockedCycles::no_targets            0                       # number of cycles access was blocked (Cycle)
system.victimcache.blockedCauses::no_mshrs           12                       # number of times access was blocked (Count)
system.victimcache.blockedCauses::no_targets            0                       # number of times access was blocked (Count)
system.victimcache.avgBlocked::no_mshrs     34.583333                       # average number of cycles each access was blocked ((Cycle/Count))
system.victimcache.avgBlocked::no_targets          nan                       # average number of cycles each access was blocked ((Cycle/Count))
system.victimcache.writebacks::writebacks          238                       # number of writebacks (Count)
system.victimcache.writebacks::total              238                       # number of writebacks (Count)
system.victimcache.demandMshrMisses::cpu.data          238                       # number of demand (read+write) MSHR misses (Count)
system.victimcache.demandMshrMisses::total          238                       # number of demand (read+write) MSHR misses (Count)
system.victimcache.overallMshrMisses::cpu.data          238                       # number of overall MSHR misses (Count)
system.victimcache.overallMshrMisses::total          238                       # number of overall MSHR misses (Count)
system.victimcache.demandMshrMissLatency::cpu.data     25988000                       # number of demand (read+write) MSHR miss ticks (Tick)
system.victimcache.demandMshrMissLatency::total     25988000                       # number of demand (read+write) MSHR miss ticks (Tick)
system.victimcache.overallMshrMissLatency::cpu.data     25988000                       # number of overall MSHR miss ticks (Tick)
system.victimcache.overallMshrMissLatency::total     25988000                       # number of overall MSHR miss ticks (Tick)
system.victimcache.demandMshrMissRate::cpu.data     0.995816                       # mshr miss ratio for demand accesses (Ratio)
system.victimcache.demandMshrMissRate::total     0.995816                       # mshr miss ratio for demand accesses (Ratio)
system.victimcache.overallMshrMissRate::cpu.data     0.995816                       # mshr miss ratio for overall accesses (Ratio)
system.victimcache.overallMshrMissRate::total     0.995816                       # mshr miss ratio for overall accesses (Ratio)
system.victimcache.demandAvgMshrMissLatency::cpu.data 109193.277311                       # average overall mshr miss latency ((Cycle/Count))
system.victimcache.demandAvgMshrMissLatency::total 109193.277311                       # average overall mshr miss latency ((Cycle/Count))
system.victimcache.overallAvgMshrMissLatency::cpu.data 109193.277311                       # average overall mshr miss latency ((Cycle/Count))
system.victimcache.overallAvgMshrMissLatency::total 109193.277311                       # average overall mshr miss latency ((Cycle/Count))
system.victimcache.replacements                     0                       # number of replacements (Count)
system.victimcache.ReadExReq.misses::cpu.data          114                       # number of ReadExReq misses (Count)
system.victimcache.ReadExReq.misses::total          114                       # number of ReadExReq misses (Count)
system.victimcache.ReadExReq.missLatency::cpu.data     12217000                       # number of ReadExReq miss ticks (Tick)
system.victimcache.ReadExReq.missLatency::total     12217000                       # number of ReadExReq miss ticks (Tick)
system.victimcache.ReadExReq.accesses::cpu.data          114                       # number of ReadExReq accesses(hits+misses) (Count)
system.victimcache.ReadExReq.accesses::total          114                       # number of ReadExReq accesses(hits+misses) (Count)
system.victimcache.ReadExReq.missRate::cpu.data            1                       # miss rate for ReadExReq accesses (Ratio)
system.victimcache.ReadExReq.missRate::total            1                       # miss rate for ReadExReq accesses (Ratio)
system.victimcache.ReadExReq.avgMissLatency::cpu.data 107166.666667                       # average ReadExReq miss latency ((Tick/Count))
system.victimcache.ReadExReq.avgMissLatency::total 107166.666667                       # average ReadExReq miss latency ((Tick/Count))
system.victimcache.ReadExReq.mshrMisses::cpu.data          114                       # number of ReadExReq MSHR misses (Count)
system.victimcache.ReadExReq.mshrMisses::total          114                       # number of ReadExReq MSHR misses (Count)
system.victimcache.ReadExReq.mshrMissLatency::cpu.data     12217000                       # number of ReadExReq MSHR miss ticks (Tick)
system.victimcache.ReadExReq.mshrMissLatency::total     12217000                       # number of ReadExReq MSHR miss ticks (Tick)
system.victimcache.ReadExReq.mshrMissRate::cpu.data            1                       # mshr miss rate for ReadExReq accesses (Ratio)
system.victimcache.ReadExReq.mshrMissRate::total            1                       # mshr miss rate for ReadExReq accesses (Ratio)
system.victimcache.ReadExReq.avgMshrMissLatency::cpu.data 107166.666667                       # average ReadExReq mshr miss latency ((Tick/Count))
system.victimcache.ReadExReq.avgMshrMissLatency::total 107166.666667                       # average ReadExReq mshr miss latency ((Tick/Count))
system.victimcache.ReadSharedReq.hits::cpu.data            1                       # number of ReadSharedReq hits (Count)
system.victimcache.ReadSharedReq.hits::total            1                       # number of ReadSharedReq hits (Count)
system.victimcache.ReadSharedReq.misses::cpu.data          124                       # number of ReadSharedReq misses (Count)
system.victimcache.ReadSharedReq.misses::total          124                       # number of ReadSharedReq misses (Count)
system.victimcache.ReadSharedReq.missLatency::cpu.data     13771000                       # number of ReadSharedReq miss ticks (Tick)
system.victimcache.ReadSharedReq.missLatency::total     13771000                       # number of ReadSharedReq miss ticks (Tick)
system.victimcache.ReadSharedReq.accesses::cpu.data          125                       # number of ReadSharedReq accesses(hits+misses) (Count)
system.victimcache.ReadSharedReq.accesses::total          125                       # number of ReadSharedReq accesses(hits+misses) (Count)
system.victimcache.ReadSharedReq.missRate::cpu.data     0.992000                       # miss rate for ReadSharedReq accesses (Ratio)
system.victimcache.ReadSharedReq.missRate::total     0.992000                       # miss rate for ReadSharedReq accesses (Ratio)
system.victimcache.ReadSharedReq.avgMissLatency::cpu.data 111056.451613                       # average ReadSharedReq miss latency ((Tick/Count))
system.victimcache.ReadSharedReq.avgMissLatency::total 111056.451613                       # average ReadSharedReq miss latency ((Tick/Count))
system.victimcache.ReadSharedReq.mshrMisses::cpu.data          124                       # number of ReadSharedReq MSHR misses (Count)
system.victimcache.ReadSharedReq.mshrMisses::total          124                       # number of ReadSharedReq MSHR misses (Count)
system.victimcache.ReadSharedReq.mshrMissLatency::cpu.data     13771000                       # number of ReadSharedReq MSHR miss ticks (Tick)
system.victimcache.ReadSharedReq.mshrMissLatency::total     13771000                       # number of ReadSharedReq MSHR miss ticks (Tick)
system.victimcache.ReadSharedReq.mshrMissRate::cpu.data     0.992000                       # mshr miss rate for ReadSharedReq accesses (Ratio)
system.victimcache.ReadSharedReq.mshrMissRate::total     0.992000                       # mshr miss rate for ReadSharedReq accesses (Ratio)
system.victimcache.ReadSharedReq.avgMshrMissLatency::cpu.data 111056.451613                       # average ReadSharedReq mshr miss latency ((Tick/Count))
system.victimcache.ReadSharedReq.avgMshrMissLatency::total 111056.451613                       # average ReadSharedReq mshr miss latency ((Tick/Count))
system.victimcache.UpgradeReq.misses::cpu.data           31                       # number of UpgradeReq misses (Count)
system.victimcache.UpgradeReq.misses::total           31                       # number of UpgradeReq misses (Count)
system.victimcache.UpgradeReq.accesses::cpu.data           31                       # number of UpgradeReq accesses(hits+misses) (Count)
system.victimcache.UpgradeReq.accesses::total           31                       # number of UpgradeReq accesses(hits+misses) (Count)
system.victimcache.UpgradeReq.missRate::cpu.data            1                       # miss rate for UpgradeReq accesses (Ratio)
system.victimcache.UpgradeReq.missRate::total            1                       # miss rate for UpgradeReq accesses (Ratio)
system.victimcache.UpgradeReq.mshrMisses::cpu.data           31                       # number of UpgradeReq MSHR misses (Count)
system.victimcache.UpgradeReq.mshrMisses::total           31                       # number of UpgradeReq MSHR misses (Count)
system.victimcache.UpgradeReq.mshrMissLatency::cpu.data      1643000                       # number of UpgradeReq MSHR miss ticks (Tick)
system.victimcache.UpgradeReq.mshrMissLatency::total      1643000                       # number of UpgradeReq MSHR miss ticks (Tick)
system.victimcache.UpgradeReq.mshrMissRate::cpu.data            1                       # mshr miss rate for UpgradeReq accesses (Ratio)
system.victimcache.UpgradeReq.mshrMissRate::total            1                       # mshr miss rate for UpgradeReq accesses (Ratio)
system.victimcache.UpgradeReq.avgMshrMissLatency::cpu.data        53000                       # average UpgradeReq mshr miss latency ((Tick/Count))
system.victimcache.UpgradeReq.avgMshrMissLatency::total        53000                       # average UpgradeReq mshr miss latency ((Tick/Count))
system.victimcache.WritebackClean.hits::writebacks            5                       # number of WritebackClean hits (Count)
system.victimcache.WritebackClean.hits::total            5                       # number of WritebackClean hits (Count)
system.victimcache.WritebackClean.accesses::writebacks            5                       # number of WritebackClean accesses(hits+misses) (Count)
system.victimcache.WritebackClean.accesses::total            5                       # number of WritebackClean accesses(hits+misses) (Count)
system.victimcache.WritebackDirty.hits::writebacks            2                       # number of WritebackDirty hits (Count)
system.victimcache.WritebackDirty.hits::total            2                       # number of WritebackDirty hits (Count)
system.victimcache.WritebackDirty.accesses::writebacks            2                       # number of WritebackDirty accesses(hits+misses) (Count)
system.victimcache.WritebackDirty.accesses::total            2                       # number of WritebackDirty accesses(hits+misses) (Count)
system.victimcache.power_state.pwrStateResidencyTicks::UNDEFINED   1689510000                       # Cumulative time (in ticks) in various power states (Tick)
system.victimcache.tags.tagsInUse            5.856295                       # Average ticks per tags in use ((Tick/Count))
system.victimcache.tags.totalRefs                   8                       # Total number of references to valid blocks. (Count)
system.victimcache.tags.sampledRefs                 7                       # Sample count of references to valid blocks. (Count)
system.victimcache.tags.avgRefs              1.142857                       # Average number of references to valid blocks. ((Count/Count))
system.victimcache.tags.warmupTick           30013000                       # The tick when the warmup percentage was hit. (Tick)
system.victimcache.tags.occupancies::writebacks     5.856295                       # Average occupied blocks per tick, per requestor ((Count/Tick))
system.victimcache.tags.avgOccs::writebacks     0.366018                       # Average percentage of cache occupancy ((Ratio/Tick))
system.victimcache.tags.avgOccs::total       0.366018                       # Average percentage of cache occupancy ((Ratio/Tick))
system.victimcache.tags.occupanciesTaskId::1024            6                       # Occupied blocks per task id (Count)
system.victimcache.tags.ageTaskId_1024::3            6                       # Occupied blocks per task id, per block age (Count)
system.victimcache.tags.ratioOccsTaskId::1024     0.375000                       # Ratio of occupied blocks and all blocks, per task id (Ratio)
system.victimcache.tags.tagAccesses              4439                       # Number of tag accesses (Count)
system.victimcache.tags.dataAccesses             4439                       # Number of data accesses (Count)
system.victimcache.tags.power_state.pwrStateResidencyTicks::UNDEFINED   1689510000                       # Cumulative time (in ticks) in various power states (Tick)
system.workload.inst.arm                            0                       # number of arm instructions executed (Count)
system.workload.inst.quiesce                        0                       # number of quiesce instructions executed (Count)

---------- End Simulation Statistics   ----------
