
---------- Begin Simulation Statistics ----------
simSeconds                                   0.000067                       # Number of seconds simulated (Second)
simTicks                                     66634000                       # Number of ticks simulated (Tick)
finalTick                                    66634000                       # Number of ticks from beginning of simulation (restored from checkpoints and never reset) (Tick)
simFreq                                  1000000000000                       # The number of ticks per simulated second ((Tick/Second))
hostSeconds                                      0.20                       # Real time elapsed on the host (Second)
hostTickRate                                332486539                       # The number of ticks simulated per host second (ticks/s) ((Tick/Second))
hostMemory                                     645992                       # Number of bytes of host memory used (Byte)
simInsts                                        49550                       # Number of instructions simulated (Count)
simOps                                          90409                       # Number of ops (including micro ops) simulated (Count)
hostInstRate                                   247074                       # Simulator instruction rate (inst/s) ((Count/Second))
hostOpRate                                     450789                       # Simulator op (including micro ops) rate (op/s) ((Count/Second))
system.clk_domain.clock                          1000                       # Clock period in ticks (Tick)
system.clk_domain.voltage_domain.voltage            1                       # Voltage in Volts (Volt)
system.cpu.numCycles                            66635                       # Number of cpu cycles simulated (Cycle)
system.cpu.numWorkItemsStarted                      0                       # Number of work items this cpu started (Count)
system.cpu.numWorkItemsCompleted                    0                       # Number of work items this cpu completed (Count)
system.cpu.instsAdded                          103684                       # Number of instructions added to the IQ (excludes non-spec) (Count)
system.cpu.nonSpecInstsAdded                        7                       # Number of non-speculative instructions added to the IQ (Count)
system.cpu.instsIssued                         100605                       # Number of instructions issued (Count)
system.cpu.squashedInstsIssued                     28                       # Number of squashed instructions issued (Count)
system.cpu.squashedInstsExamined                13276                       # Number of squashed instructions iterated over during squash; mainly for profiling (Count)
system.cpu.squashedOperandsExamined             14967                       # Number of squashed operands that are examined and possibly removed from graph (Count)
system.cpu.squashedNonSpecRemoved                   7                       # Number of squashed non-spec instructions that were removed (Count)
system.cpu.numIssuedDist::samples               47386                       # Number of insts issued each cycle (Count)
system.cpu.numIssuedDist::mean               2.123095                       # Number of insts issued each cycle (Count)
system.cpu.numIssuedDist::stdev              2.429823                       # Number of insts issued each cycle (Count)
system.cpu.numIssuedDist::underflows                0      0.00%      0.00% # Number of insts issued each cycle (Count)
system.cpu.numIssuedDist::0                     23209     48.98%     48.98% # Number of insts issued each cycle (Count)
system.cpu.numIssuedDist::1                      1803      3.80%     52.78% # Number of insts issued each cycle (Count)
system.cpu.numIssuedDist::2                      1280      2.70%     55.48% # Number of insts issued each cycle (Count)
system.cpu.numIssuedDist::3                      9343     19.72%     75.20% # Number of insts issued each cycle (Count)
system.cpu.numIssuedDist::4                      1103      2.33%     77.53% # Number of insts issued each cycle (Count)
system.cpu.numIssuedDist::5                       996      2.10%     79.63% # Number of insts issued each cycle (Count)
system.cpu.numIssuedDist::6                      8998     18.99%     98.62% # Number of insts issued each cycle (Count)
system.cpu.numIssuedDist::7                       399      0.84%     99.46% # Number of insts issued each cycle (Count)
system.cpu.numIssuedDist::8                       255      0.54%    100.00% # Number of insts issued each cycle (Count)
system.cpu.numIssuedDist::overflows                 0      0.00%    100.00% # Number of insts issued each cycle (Count)
system.cpu.numIssuedDist::min_value                 0                       # Number of insts issued each cycle (Count)
system.cpu.numIssuedDist::max_value                 8                       # Number of insts issued each cycle (Count)
system.cpu.numIssuedDist::total                 47386                       # Number of insts issued each cycle (Count)
system.cpu.statFuBusy::No_OpClass                   0      0.00%      0.00% # attempts to use FU when none available (Count)
system.cpu.statFuBusy::IntAlu                     213     74.22%     74.22% # attempts to use FU when none available (Count)
system.cpu.statFuBusy::IntMult                      0      0.00%     74.22% # attempts to use FU when none available (Count)
system.cpu.statFuBusy::IntDiv                       0      0.00%     74.22% # attempts to use FU when none available (Count)
system.cpu.statFuBusy::FloatAdd                     0      0.00%     74.22% # attempts to use FU when none available (Count)
system.cpu.statFuBusy::FloatCmp                     0      0.00%     74.22% # attempts to use FU when none available (Count)
system.cpu.statFuBusy::FloatCvt                     0      0.00%     74.22% # attempts to use FU when none available (Count)
system.cpu.statFuBusy::FloatMult                    0      0.00%     74.22% # attempts to use FU when none available (Count)
system.cpu.statFuBusy::FloatMultAcc                 0      0.00%     74.22% # attempts to use FU when none available (Count)
system.cpu.statFuBusy::FloatDiv                     0      0.00%     74.22% # attempts to use FU when none available (Count)
system.cpu.statFuBusy::FloatMisc                    0      0.00%     74.22% # attempts to use FU when none available (Count)
system.cpu.statFuBusy::FloatSqrt                    0      0.00%     74.22% # attempts to use FU when none available (Count)
system.cpu.statFuBusy::SimdAdd                      0      0.00%     74.22% # attempts to use FU when none available (Count)
system.cpu.statFuBusy::SimdAddAcc                   0      0.00%     74.22% # attempts to use FU when none available (Count)
system.cpu.statFuBusy::SimdAlu                     10      3.48%     77.70% # attempts to use FU when none available (Count)
system.cpu.statFuBusy::SimdCmp                      0      0.00%     77.70% # attempts to use FU when none available (Count)
system.cpu.statFuBusy::SimdCvt                      1      0.35%     78.05% # attempts to use FU when none available (Count)
system.cpu.statFuBusy::SimdMisc                     2      0.70%     78.75% # attempts to use FU when none available (Count)
system.cpu.statFuBusy::SimdMult                     0      0.00%     78.75% # attempts to use FU when none available (Count)
system.cpu.statFuBusy::SimdMultAcc                  0      0.00%     78.75% # attempts to use FU when none available (Count)
system.cpu.statFuBusy::SimdShift                    0      0.00%     78.75% # attempts to use FU when none available (Count)
system.cpu.statFuBusy::SimdShiftAcc                 0      0.00%     78.75% # attempts to use FU when none available (Count)
system.cpu.statFuBusy::SimdDiv                      0      0.00%     78.75% # attempts to use FU when none available (Count)
system.cpu.statFuBusy::SimdSqrt                     0      0.00%     78.75% # attempts to use FU when none available (Count)
system.cpu.statFuBusy::SimdFloatAdd                 0      0.00%     78.75% # attempts to use FU when none available (Count)
system.cpu.statFuBusy::SimdFloatAlu                 0      0.00%     78.75% # attempts to use FU when none available (Count)
system.cpu.statFuBusy::SimdFloatCmp                 0      0.00%     78.75% # attempts to use FU when none available (Count)
system.cpu.statFuBusy::SimdFloatCvt                 0      0.00%     78.75% # attempts to use FU when none available (Count)
system.cpu.statFuBusy::SimdFloatDiv                 0      0.00%     78.75% # attempts to use FU when none available (Count)
system.cpu.statFuBusy::SimdFloatMisc                0      0.00%     78.75% # attempts to use FU when none available (Count)
system.cpu.statFuBusy::SimdFloatMult                0      0.00%     78.75% # attempts to use FU when none available (Count)
system.cpu.statFuBusy::SimdFloatMultAcc             0      0.00%     78.75% # attempts to use FU when none available (Count)
system.cpu.statFuBusy::SimdFloatSqrt                0      0.00%     78.75% # attempts to use FU when none available (Count)
system.cpu.statFuBusy::SimdReduceAdd                0      0.00%     78.75% # attempts to use FU when none available (Count)
system.cpu.statFuBusy::SimdReduceAlu                0      0.00%     78.75% # attempts to use FU when none available (Count)
system.cpu.statFuBusy::SimdReduceCmp                0      0.00%     78.75% # attempts to use FU when none available (Count)
system.cpu.statFuBusy::SimdFloatReduceAdd            0      0.00%     78.75% # attempts to use FU when none available (Count)
system.cpu.statFuBusy::SimdFloatReduceCmp            0      0.00%     78.75% # attempts to use FU when none available (Count)
system.cpu.statFuBusy::SimdAes                      0      0.00%     78.75% # attempts to use FU when none available (Count)
system.cpu.statFuBusy::SimdAesMix                   0      0.00%     78.75% # attempts to use FU when none available (Count)
system.cpu.statFuBusy::SimdSha1Hash                 0      0.00%     78.75% # attempts to use FU when none available (Count)
system.cpu.statFuBusy::SimdSha1Hash2                0      0.00%     78.75% # attempts to use FU when none available (Count)
system.cpu.statFuBusy::SimdSha256Hash               0      0.00%     78.75% # attempts to use FU when none available (Count)
system.cpu.statFuBusy::SimdSha256Hash2              0      0.00%     78.75% # attempts to use FU when none available (Count)
system.cpu.statFuBusy::SimdShaSigma2                0      0.00%     78.75% # attempts to use FU when none available (Count)
system.cpu.statFuBusy::SimdShaSigma3                0      0.00%     78.75% # attempts to use FU when none available (Count)
system.cpu.statFuBusy::SimdPredAlu                  0      0.00%     78.75% # attempts to use FU when none available (Count)
system.cpu.statFuBusy::MemRead                     29     10.10%     88.85% # attempts to use FU when none available (Count)
system.cpu.statFuBusy::MemWrite                    14      4.88%     93.73% # attempts to use FU when none available (Count)
system.cpu.statFuBusy::FloatMemRead                 6      2.09%     95.82% # attempts to use FU when none available (Count)
system.cpu.statFuBusy::FloatMemWrite               12      4.18%    100.00% # attempts to use FU when none available (Count)
system.cpu.statFuBusy::IprAccess                    0      0.00%    100.00% # attempts to use FU when none available (Count)
system.cpu.statFuBusy::InstPrefetch                 0      0.00%    100.00% # attempts to use FU when none available (Count)
system.cpu.statIssuedInstType_0::No_OpClass          704      0.70%      0.70% # Number of instructions issued per FU type, per thread (Count)
system.cpu.statIssuedInstType_0::IntAlu         94147     93.58%     94.28% # Number of instructions issued per FU type, per thread (Count)
system.cpu.statIssuedInstType_0::IntMult            6      0.01%     94.29% # Number of instructions issued per FU type, per thread (Count)
system.cpu.statIssuedInstType_0::IntDiv            29      0.03%     94.32% # Number of instructions issued per FU type, per thread (Count)
system.cpu.statIssuedInstType_0::FloatAdd          136      0.14%     94.45% # Number of instructions issued per FU type, per thread (Count)
system.cpu.statIssuedInstType_0::FloatCmp            0      0.00%     94.45% # Number of instructions issued per FU type, per thread (Count)
system.cpu.statIssuedInstType_0::FloatCvt            0      0.00%     94.45% # Number of instructions issued per FU type, per thread (Count)
system.cpu.statIssuedInstType_0::FloatMult            0      0.00%     94.45% # Number of instructions issued per FU type, per thread (Count)
system.cpu.statIssuedInstType_0::FloatMultAcc            0      0.00%     94.45% # Number of instructions issued per FU type, per thread (Count)
system.cpu.statIssuedInstType_0::FloatDiv            0      0.00%     94.45% # Number of instructions issued per FU type, per thread (Count)
system.cpu.statIssuedInstType_0::FloatMisc            0      0.00%     94.45% # Number of instructions issued per FU type, per thread (Count)
system.cpu.statIssuedInstType_0::FloatSqrt            0      0.00%     94.45% # Number of instructions issued per FU type, per thread (Count)
system.cpu.statIssuedInstType_0::SimdAdd            0      0.00%     94.45% # Number of instructions issued per FU type, per thread (Count)
system.cpu.statIssuedInstType_0::SimdAddAcc            0      0.00%     94.45% # Number of instructions issued per FU type, per thread (Count)
system.cpu.statIssuedInstType_0::SimdAlu          152      0.15%     94.60% # Number of instructions issued per FU type, per thread (Count)
system.cpu.statIssuedInstType_0::SimdCmp            0      0.00%     94.60% # Number of instructions issued per FU type, per thread (Count)
system.cpu.statIssuedInstType_0::SimdCvt           46      0.05%     94.65% # Number of instructions issued per FU type, per thread (Count)
system.cpu.statIssuedInstType_0::SimdMisc          216      0.21%     94.86% # Number of instructions issued per FU type, per thread (Count)
system.cpu.statIssuedInstType_0::SimdMult            0      0.00%     94.86% # Number of instructions issued per FU type, per thread (Count)
system.cpu.statIssuedInstType_0::SimdMultAcc            0      0.00%     94.86% # Number of instructions issued per FU type, per thread (Count)
system.cpu.statIssuedInstType_0::SimdShift            0      0.00%     94.86% # Number of instructions issued per FU type, per thread (Count)
system.cpu.statIssuedInstType_0::SimdShiftAcc            0      0.00%     94.86% # Number of instructions issued per FU type, per thread (Count)
system.cpu.statIssuedInstType_0::SimdDiv            0      0.00%     94.86% # Number of instructions issued per FU type, per thread (Count)
system.cpu.statIssuedInstType_0::SimdSqrt            0      0.00%     94.86% # Number of instructions issued per FU type, per thread (Count)
system.cpu.statIssuedInstType_0::SimdFloatAdd            0      0.00%     94.86% # Number of instructions issued per FU type, per thread (Count)
system.cpu.statIssuedInstType_0::SimdFloatAlu            0      0.00%     94.86% # Number of instructions issued per FU type, per thread (Count)
system.cpu.statIssuedInstType_0::SimdFloatCmp            0      0.00%     94.86% # Number of instructions issued per FU type, per thread (Count)
system.cpu.statIssuedInstType_0::SimdFloatCvt            0      0.00%     94.86% # Number of instructions issued per FU type, per thread (Count)
system.cpu.statIssuedInstType_0::SimdFloatDiv            0      0.00%     94.86% # Number of instructions issued per FU type, per thread (Count)
system.cpu.statIssuedInstType_0::SimdFloatMisc            0      0.00%     94.86% # Number of instructions issued per FU type, per thread (Count)
system.cpu.statIssuedInstType_0::SimdFloatMult            0      0.00%     94.86% # Number of instructions issued per FU type, per thread (Count)
system.cpu.statIssuedInstType_0::SimdFloatMultAcc            0      0.00%     94.86% # Number of instructions issued per FU type, per thread (Count)
system.cpu.statIssuedInstType_0::SimdFloatSqrt            0      0.00%     94.86% # Number of instructions issued per FU type, per thread (Count)
system.cpu.statIssuedInstType_0::SimdReduceAdd            0      0.00%     94.86% # Number of instructions issued per FU type, per thread (Count)
system.cpu.statIssuedInstType_0::SimdReduceAlu            0      0.00%     94.86% # Number of instructions issued per FU type, per thread (Count)
system.cpu.statIssuedInstType_0::SimdReduceCmp            0      0.00%     94.86% # Number of instructions issued per FU type, per thread (Count)
system.cpu.statIssuedInstType_0::SimdFloatReduceAdd            0      0.00%     94.86% # Number of instructions issued per FU type, per thread (Count)
system.cpu.statIssuedInstType_0::SimdFloatReduceCmp            0      0.00%     94.86% # Number of instructions issued per FU type, per thread (Count)
system.cpu.statIssuedInstType_0::SimdAes            0      0.00%     94.86% # Number of instructions issued per FU type, per thread (Count)
system.cpu.statIssuedInstType_0::SimdAesMix            0      0.00%     94.86% # Number of instructions issued per FU type, per thread (Count)
system.cpu.statIssuedInstType_0::SimdSha1Hash            0      0.00%     94.86% # Number of instructions issued per FU type, per thread (Count)
system.cpu.statIssuedInstType_0::SimdSha1Hash2            0      0.00%     94.86% # Number of instructions issued per FU type, per thread (Count)
system.cpu.statIssuedInstType_0::SimdSha256Hash            0      0.00%     94.86% # Number of instructions issued per FU type, per thread (Count)
system.cpu.statIssuedInstType_0::SimdSha256Hash2            0      0.00%     94.86% # Number of instructions issued per FU type, per thread (Count)
system.cpu.statIssuedInstType_0::SimdShaSigma2            0      0.00%     94.86% # Number of instructions issued per FU type, per thread (Count)
system.cpu.statIssuedInstType_0::SimdShaSigma3            0      0.00%     94.86% # Number of instructions issued per FU type, per thread (Count)
system.cpu.statIssuedInstType_0::SimdPredAlu            0      0.00%     94.86% # Number of instructions issued per FU type, per thread (Count)
system.cpu.statIssuedInstType_0::MemRead         2824      2.81%     97.67% # Number of instructions issued per FU type, per thread (Count)
system.cpu.statIssuedInstType_0::MemWrite         1721      1.71%     99.38% # Number of instructions issued per FU type, per thread (Count)
system.cpu.statIssuedInstType_0::FloatMemRead           81      0.08%     99.46% # Number of instructions issued per FU type, per thread (Count)
system.cpu.statIssuedInstType_0::FloatMemWrite          543      0.54%    100.00% # Number of instructions issued per FU type, per thread (Count)
system.cpu.statIssuedInstType_0::IprAccess            0      0.00%    100.00% # Number of instructions issued per FU type, per thread (Count)
system.cpu.statIssuedInstType_0::InstPrefetch            0      0.00%    100.00% # Number of instructions issued per FU type, per thread (Count)
system.cpu.statIssuedInstType_0::total         100605                       # Number of instructions issued per FU type, per thread (Count)
system.cpu.issueRate                         1.509792                       # Inst issue rate ((Count/Cycle))
system.cpu.fuBusy                                 287                       # FU busy when requested (Count)
system.cpu.fuBusyRate                        0.002853                       # FU busy rate (busy events/executed inst) ((Count/Count))
system.cpu.intInstQueueReads                   246245                       # Number of integer instruction queue reads (Count)
system.cpu.intInstQueueWrites                  115487                       # Number of integer instruction queue writes (Count)
system.cpu.intInstQueueWakeupAccesses           97744                       # Number of integer instruction queue wakeup accesses (Count)
system.cpu.fpInstQueueReads                      2666                       # Number of floating instruction queue reads (Count)
system.cpu.fpInstQueueWrites                     1493                       # Number of floating instruction queue writes (Count)
system.cpu.fpInstQueueWakeupAccesses             1284                       # Number of floating instruction queue wakeup accesses (Count)
system.cpu.vecInstQueueReads                        0                       # Number of vector instruction queue reads (Count)
system.cpu.vecInstQueueWrites                       0                       # Number of vector instruction queue writes (Count)
system.cpu.vecInstQueueWakeupAccesses               0                       # Number of vector instruction queue wakeup accesses (Count)
system.cpu.intAluAccesses                       98843                       # Number of integer alu accesses (Count)
system.cpu.fpAluAccesses                         1345                       # Number of floating point alu accesses (Count)
system.cpu.vecAluAccesses                           0                       # Number of vector alu accesses (Count)
system.cpu.idleCycles                               0                       # Number of cycles IEW is idle (Cycle)
system.cpu.squashCycles                           652                       # Number of cycles IEW is squashing (Cycle)
system.cpu.blockCycles                           1743                       # Number of cycles IEW is blocking (Cycle)
system.cpu.unblockCycles                          731                       # Number of cycles IEW is unblocking (Cycle)
system.cpu.dispatchedInsts                     103691                       # Number of instructions dispatched to IQ (Count)
system.cpu.dispSquashedInsts                       90                       # Number of squashed instructions skipped by dispatch (Count)
system.cpu.dispLoadInsts                         3153                       # Number of dispatched load instructions (Count)
system.cpu.dispStoreInsts                        2624                       # Number of dispatched store instructions (Count)
system.cpu.dispNonSpecInsts                         3                       # Number of dispatched non-speculative instructions (Count)
system.cpu.iqFullEvents                             8                       # Number of times the IQ has become full, causing a stall (Count)
system.cpu.lsqFullEvents                          722                       # Number of times the LSQ has become full, causing a stall (Count)
system.cpu.memOrderViolationEvents                 22                       # Number of memory order violations (Count)
system.cpu.predictedTakenIncorrect                 81                       # Number of branches that were predicted taken incorrectly (Count)
system.cpu.predictedNotTakenIncorrect             661                       # Number of branches that were predicted not taken incorrectly (Count)
system.cpu.branchMispredicts                      742                       # Number of branch mispredicts detected at execute (Count)
system.cpu.numInsts                             99774                       # Number of executed instructions (Count)
system.cpu.numLoadInsts                          2778                       # Number of load instructions executed (Count)
system.cpu.numSquashedInsts                       831                       # Number of squashed instructions skipped in execute (Count)
system.cpu.numSwp                                   0                       # Number of swp insts executed (Count)
system.cpu.numNop                                   0                       # Number of nop insts executed (Count)
system.cpu.numRefs                               4957                       # Number of memory reference insts executed (Count)
system.cpu.numBranches                          10726                       # Number of branches executed (Count)
system.cpu.numStoreInsts                         2179                       # Number of stores executed (Count)
system.cpu.numRate                           1.497321                       # Inst execution rate ((Count/Cycle))
system.cpu.instsToCommit                        99418                       # Cumulative count of insts sent to commit (Count)
system.cpu.writebackCount                       99028                       # Cumulative count of insts written-back (Count)
system.cpu.producerInst                         82913                       # Number of instructions producing a value (Count)
system.cpu.consumerInst                        141450                       # Number of instructions consuming a value (Count)
system.cpu.wbRate                            1.486126                       # Insts written-back per cycle ((Count/Cycle))
system.cpu.wbFanout                          0.586165                       # Average fanout of values written-back ((Count/Count))
system.cpu.timesIdled                             288                       # Number of times that the entire CPU went into an idle state and unscheduled itself (Count)
system.cpu.idleCycles                           19249                       # Total number of cycles that the CPU has spent unscheduled due to idling (Cycle)
system.cpu.committedInsts                       49550                       # Number of Instructions Simulated (Count)
system.cpu.committedOps                         90409                       # Number of Ops (including micro ops) Simulated (Count)
system.cpu.cpi                               1.344803                       # CPI: Cycles Per Instruction ((Cycle/Count))
system.cpu.totalCpi                          1.344803                       # CPI: Total CPI of All Threads ((Cycle/Count))
system.cpu.ipc                               0.743603                       # IPC: Instructions Per Cycle ((Count/Cycle))
system.cpu.totalIpc                          0.743603                       # IPC: Total IPC of All Threads ((Count/Cycle))
system.cpu.intRegfileReads                     133073                       # Number of integer regfile reads (Count)
system.cpu.intRegfileWrites                     85080                       # Number of integer regfile writes (Count)
system.cpu.fpRegfileReads                        1520                       # Number of floating regfile reads (Count)
system.cpu.fpRegfileWrites                        709                       # Number of floating regfile writes (Count)
system.cpu.ccRegfileReads                       52395                       # number of cc regfile reads (Count)
system.cpu.ccRegfileWrites                      40181                       # number of cc regfile writes (Count)
system.cpu.miscRegfileReads                     27473                       # number of misc regfile reads (Count)
system.cpu.MemDepUnit__0.insertedLoads           3153                       # Number of loads inserted to the mem dependence unit. (Count)
system.cpu.MemDepUnit__0.insertedStores          2624                       # Number of stores inserted to the mem dependence unit. (Count)
system.cpu.MemDepUnit__0.conflictingLoads           19                       # Number of conflicting loads. (Count)
system.cpu.MemDepUnit__0.conflictingStores           14                       # Number of conflicting stores. (Count)
system.cpu.MemDepUnit__1.insertedLoads              0                       # Number of loads inserted to the mem dependence unit. (Count)
system.cpu.MemDepUnit__1.insertedStores             0                       # Number of stores inserted to the mem dependence unit. (Count)
system.cpu.MemDepUnit__1.conflictingLoads            0                       # Number of conflicting loads. (Count)
system.cpu.MemDepUnit__1.conflictingStores            0                       # Number of conflicting stores. (Count)
system.cpu.MemDepUnit__2.insertedLoads              0                       # Number of loads inserted to the mem dependence unit. (Count)
system.cpu.MemDepUnit__2.insertedStores             0                       # Number of stores inserted to the mem dependence unit. (Count)
system.cpu.MemDepUnit__2.conflictingLoads            0                       # Number of conflicting loads. (Count)
system.cpu.MemDepUnit__2.conflictingStores            0                       # Number of conflicting stores. (Count)
system.cpu.MemDepUnit__3.insertedLoads              0                       # Number of loads inserted to the mem dependence unit. (Count)
system.cpu.MemDepUnit__3.insertedStores             0                       # Number of stores inserted to the mem dependence unit. (Count)
system.cpu.MemDepUnit__3.conflictingLoads            0                       # Number of conflicting loads. (Count)
system.cpu.MemDepUnit__3.conflictingStores            0                       # Number of conflicting stores. (Count)
system.cpu.branchPred.lookups                   12407                       # Number of BP lookups (Count)
system.cpu.branchPred.condPredicted             11178                       # Number of conditional branches predicted (Count)
system.cpu.branchPred.condIncorrect               723                       # Number of conditional branches incorrect (Count)
system.cpu.branchPred.BTBLookups                10214                       # Number of BTB lookups (Count)
system.cpu.branchPred.BTBHits                    9506                       # Number of BTB hits (Count)
system.cpu.branchPred.BTBHitRatio            0.930683                       # BTB Hit Ratio (Ratio)
system.cpu.branchPred.RASUsed                     292                       # Number of times the RAS was used to get a target. (Count)
system.cpu.branchPred.RASIncorrect                  0                       # Number of incorrect RAS predictions. (Count)
system.cpu.branchPred.indirectLookups             308                       # Number of indirect predictor lookups. (Count)
system.cpu.branchPred.indirectHits                 10                       # Number of indirect target hits. (Count)
system.cpu.branchPred.indirectMisses              298                       # Number of indirect misses. (Count)
system.cpu.branchPred.indirectMispredicted           94                       # Number of mispredicted indirect branches. (Count)
system.cpu.commit.commitSquashedInsts           13151                       # The number of squashed insts skipped by commit (Count)
system.cpu.commit.branchMispredicts               627                       # The number of times a branch was mispredicted (Count)
system.cpu.commit.numCommittedDist::samples        45232                       # Number of insts commited each cycle (Count)
system.cpu.commit.numCommittedDist::mean     1.998784                       # Number of insts commited each cycle (Count)
system.cpu.commit.numCommittedDist::stdev     2.275234                       # Number of insts commited each cycle (Count)
system.cpu.commit.numCommittedDist::underflows            0      0.00%      0.00% # Number of insts commited each cycle (Count)
system.cpu.commit.numCommittedDist::0           23543     52.05%     52.05% # Number of insts commited each cycle (Count)
system.cpu.commit.numCommittedDist::1            1637      3.62%     55.67% # Number of insts commited each cycle (Count)
system.cpu.commit.numCommittedDist::2             867      1.92%     57.59% # Number of insts commited each cycle (Count)
system.cpu.commit.numCommittedDist::3            1164      2.57%     60.16% # Number of insts commited each cycle (Count)
system.cpu.commit.numCommittedDist::4            8674     19.18%     79.34% # Number of insts commited each cycle (Count)
system.cpu.commit.numCommittedDist::5            8455     18.69%     98.03% # Number of insts commited each cycle (Count)
system.cpu.commit.numCommittedDist::6             221      0.49%     98.52% # Number of insts commited each cycle (Count)
system.cpu.commit.numCommittedDist::7             119      0.26%     98.78% # Number of insts commited each cycle (Count)
system.cpu.commit.numCommittedDist::8             552      1.22%    100.00% # Number of insts commited each cycle (Count)
system.cpu.commit.numCommittedDist::overflows            0      0.00%    100.00% # Number of insts commited each cycle (Count)
system.cpu.commit.numCommittedDist::min_value            0                       # Number of insts commited each cycle (Count)
system.cpu.commit.numCommittedDist::max_value            8                       # Number of insts commited each cycle (Count)
system.cpu.commit.numCommittedDist::total        45232                       # Number of insts commited each cycle (Count)
system.cpu.commit.instsCommitted                49550                       # Number of instructions committed (Count)
system.cpu.commit.opsCommitted                  90409                       # Number of ops (including micro ops) committed (Count)
system.cpu.commit.memRefs                        3202                       # Number of memory references committed (Count)
system.cpu.commit.loads                          1558                       # Number of loads committed (Count)
system.cpu.commit.amos                              0                       # Number of atomic instructions committed (Count)
system.cpu.commit.membars                           0                       # Number of memory barriers committed (Count)
system.cpu.commit.branches                      10000                       # Number of branches committed (Count)
system.cpu.commit.vectorInstructions                0                       # Number of committed Vector instructions. (Count)
system.cpu.commit.floating                       1165                       # Number of committed floating point instructions. (Count)
system.cpu.commit.integer                       89627                       # Number of committed integer instructions. (Count)
system.cpu.commit.functionCalls                   150                       # Number of function calls committed. (Count)
system.cpu.commit.committedInstType_0::No_OpClass          227      0.25%      0.25% # Class of committed instruction (Count)
system.cpu.commit.committedInstType_0::IntAlu        86464     95.64%     95.89% # Class of committed instruction (Count)
system.cpu.commit.committedInstType_0::IntMult            5      0.01%     95.89% # Class of committed instruction (Count)
system.cpu.commit.committedInstType_0::IntDiv           21      0.02%     95.92% # Class of committed instruction (Count)
system.cpu.commit.committedInstType_0::FloatAdd          135      0.15%     96.07% # Class of committed instruction (Count)
system.cpu.commit.committedInstType_0::FloatCmp            0      0.00%     96.07% # Class of committed instruction (Count)
system.cpu.commit.committedInstType_0::FloatCvt            0      0.00%     96.07% # Class of committed instruction (Count)
system.cpu.commit.committedInstType_0::FloatMult            0      0.00%     96.07% # Class of committed instruction (Count)
system.cpu.commit.committedInstType_0::FloatMultAcc            0      0.00%     96.07% # Class of committed instruction (Count)
system.cpu.commit.committedInstType_0::FloatDiv            0      0.00%     96.07% # Class of committed instruction (Count)
system.cpu.commit.committedInstType_0::FloatMisc            0      0.00%     96.07% # Class of committed instruction (Count)
system.cpu.commit.committedInstType_0::FloatSqrt            0      0.00%     96.07% # Class of committed instruction (Count)
system.cpu.commit.committedInstType_0::SimdAdd            0      0.00%     96.07% # Class of committed instruction (Count)
system.cpu.commit.committedInstType_0::SimdAddAcc            0      0.00%     96.07% # Class of committed instruction (Count)
system.cpu.commit.committedInstType_0::SimdAlu           94      0.10%     96.17% # Class of committed instruction (Count)
system.cpu.commit.committedInstType_0::SimdCmp            0      0.00%     96.17% # Class of committed instruction (Count)
system.cpu.commit.committedInstType_0::SimdCvt           46      0.05%     96.22% # Class of committed instruction (Count)
system.cpu.commit.committedInstType_0::SimdMisc          215      0.24%     96.46% # Class of committed instruction (Count)
system.cpu.commit.committedInstType_0::SimdMult            0      0.00%     96.46% # Class of committed instruction (Count)
system.cpu.commit.committedInstType_0::SimdMultAcc            0      0.00%     96.46% # Class of committed instruction (Count)
system.cpu.commit.committedInstType_0::SimdShift            0      0.00%     96.46% # Class of committed instruction (Count)
system.cpu.commit.committedInstType_0::SimdShiftAcc            0      0.00%     96.46% # Class of committed instruction (Count)
system.cpu.commit.committedInstType_0::SimdDiv            0      0.00%     96.46% # Class of committed instruction (Count)
system.cpu.commit.committedInstType_0::SimdSqrt            0      0.00%     96.46% # Class of committed instruction (Count)
system.cpu.commit.committedInstType_0::SimdFloatAdd            0      0.00%     96.46% # Class of committed instruction (Count)
system.cpu.commit.committedInstType_0::SimdFloatAlu            0      0.00%     96.46% # Class of committed instruction (Count)
system.cpu.commit.committedInstType_0::SimdFloatCmp            0      0.00%     96.46% # Class of committed instruction (Count)
system.cpu.commit.committedInstType_0::SimdFloatCvt            0      0.00%     96.46% # Class of committed instruction (Count)
system.cpu.commit.committedInstType_0::SimdFloatDiv            0      0.00%     96.46% # Class of committed instruction (Count)
system.cpu.commit.committedInstType_0::SimdFloatMisc            0      0.00%     96.46% # Class of committed instruction (Count)
system.cpu.commit.committedInstType_0::SimdFloatMult            0      0.00%     96.46% # Class of committed instruction (Count)
system.cpu.commit.committedInstType_0::SimdFloatMultAcc            0      0.00%     96.46% # Class of committed instruction (Count)
system.cpu.commit.committedInstType_0::SimdFloatSqrt            0      0.00%     96.46% # Class of committed instruction (Count)
system.cpu.commit.committedInstType_0::SimdReduceAdd            0      0.00%     96.46% # Class of committed instruction (Count)
system.cpu.commit.committedInstType_0::SimdReduceAlu            0      0.00%     96.46% # Class of committed instruction (Count)
system.cpu.commit.committedInstType_0::SimdReduceCmp            0      0.00%     96.46% # Class of committed instruction (Count)
system.cpu.commit.committedInstType_0::SimdFloatReduceAdd            0      0.00%     96.46% # Class of committed instruction (Count)
system.cpu.commit.committedInstType_0::SimdFloatReduceCmp            0      0.00%     96.46% # Class of committed instruction (Count)
system.cpu.commit.committedInstType_0::SimdAes            0      0.00%     96.46% # Class of committed instruction (Count)
system.cpu.commit.committedInstType_0::SimdAesMix            0      0.00%     96.46% # Class of committed instruction (Count)
system.cpu.commit.committedInstType_0::SimdSha1Hash            0      0.00%     96.46% # Class of committed instruction (Count)
system.cpu.commit.committedInstType_0::SimdSha1Hash2            0      0.00%     96.46% # Class of committed instruction (Count)
system.cpu.commit.committedInstType_0::SimdSha256Hash            0      0.00%     96.46% # Class of committed instruction (Count)
system.cpu.commit.committedInstType_0::SimdSha256Hash2            0      0.00%     96.46% # Class of committed instruction (Count)
system.cpu.commit.committedInstType_0::SimdShaSigma2            0      0.00%     96.46% # Class of committed instruction (Count)
system.cpu.commit.committedInstType_0::SimdShaSigma3            0      0.00%     96.46% # Class of committed instruction (Count)
system.cpu.commit.committedInstType_0::SimdPredAlu            0      0.00%     96.46% # Class of committed instruction (Count)
system.cpu.commit.committedInstType_0::MemRead         1496      1.65%     98.11% # Class of committed instruction (Count)
system.cpu.commit.committedInstType_0::MemWrite         1170      1.29%     99.41% # Class of committed instruction (Count)
system.cpu.commit.committedInstType_0::FloatMemRead           62      0.07%     99.48% # Class of committed instruction (Count)
system.cpu.commit.committedInstType_0::FloatMemWrite          474      0.52%    100.00% # Class of committed instruction (Count)
system.cpu.commit.committedInstType_0::IprAccess            0      0.00%    100.00% # Class of committed instruction (Count)
system.cpu.commit.committedInstType_0::InstPrefetch            0      0.00%    100.00% # Class of committed instruction (Count)
system.cpu.commit.committedInstType_0::total        90409                       # Class of committed instruction (Count)
system.cpu.commit.commitEligibleSamples           552                       # number cycles where commit BW limit reached (Cycle)
system.cpu.dcache.demandHits::cpu.data           3680                       # number of demand (read+write) hits (Count)
system.cpu.dcache.demandHits::total              3680                       # number of demand (read+write) hits (Count)
system.cpu.dcache.overallHits::cpu.data          3680                       # number of overall hits (Count)
system.cpu.dcache.overallHits::total             3680                       # number of overall hits (Count)
system.cpu.dcache.demandMisses::cpu.data          423                       # number of demand (read+write) misses (Count)
system.cpu.dcache.demandMisses::total             423                       # number of demand (read+write) misses (Count)
system.cpu.dcache.overallMisses::cpu.data          423                       # number of overall misses (Count)
system.cpu.dcache.overallMisses::total            423                       # number of overall misses (Count)
system.cpu.dcache.demandMissLatency::cpu.data     42038999                       # number of demand (read+write) miss ticks (Tick)
system.cpu.dcache.demandMissLatency::total     42038999                       # number of demand (read+write) miss ticks (Tick)
system.cpu.dcache.overallMissLatency::cpu.data     42038999                       # number of overall miss ticks (Tick)
system.cpu.dcache.overallMissLatency::total     42038999                       # number of overall miss ticks (Tick)
system.cpu.dcache.demandAccesses::cpu.data         4103                       # number of demand (read+write) accesses (Count)
system.cpu.dcache.demandAccesses::total          4103                       # number of demand (read+write) accesses (Count)
system.cpu.dcache.overallAccesses::cpu.data         4103                       # number of overall (read+write) accesses (Count)
system.cpu.dcache.overallAccesses::total         4103                       # number of overall (read+write) accesses (Count)
system.cpu.dcache.demandMissRate::cpu.data     0.103095                       # miss rate for demand accesses (Ratio)
system.cpu.dcache.demandMissRate::total      0.103095                       # miss rate for demand accesses (Ratio)
system.cpu.dcache.overallMissRate::cpu.data     0.103095                       # miss rate for overall accesses (Ratio)
system.cpu.dcache.overallMissRate::total     0.103095                       # miss rate for overall accesses (Ratio)
system.cpu.dcache.demandAvgMissLatency::cpu.data 99382.976359                       # average overall miss latency ((Cycle/Count))
system.cpu.dcache.demandAvgMissLatency::total 99382.976359                       # average overall miss latency ((Cycle/Count))
system.cpu.dcache.overallAvgMissLatency::cpu.data 99382.976359                       # average overall miss latency ((Cycle/Count))
system.cpu.dcache.overallAvgMissLatency::total 99382.976359                       # average overall miss latency ((Cycle/Count))
system.cpu.dcache.blockedCycles::no_mshrs          502                       # number of cycles access was blocked (Cycle)
system.cpu.dcache.blockedCycles::no_targets            0                       # number of cycles access was blocked (Cycle)
system.cpu.dcache.blockedCauses::no_mshrs           16                       # number of times access was blocked (Count)
system.cpu.dcache.blockedCauses::no_targets            0                       # number of times access was blocked (Count)
system.cpu.dcache.avgBlocked::no_mshrs      31.375000                       # average number of cycles each access was blocked ((Cycle/Count))
system.cpu.dcache.avgBlocked::no_targets          nan                       # average number of cycles each access was blocked ((Cycle/Count))
system.cpu.dcache.demandMshrHits::cpu.data          157                       # number of demand (read+write) MSHR hits (Count)
system.cpu.dcache.demandMshrHits::total           157                       # number of demand (read+write) MSHR hits (Count)
system.cpu.dcache.overallMshrHits::cpu.data          157                       # number of overall MSHR hits (Count)
system.cpu.dcache.overallMshrHits::total          157                       # number of overall MSHR hits (Count)
system.cpu.dcache.demandMshrMisses::cpu.data          266                       # number of demand (read+write) MSHR misses (Count)
system.cpu.dcache.demandMshrMisses::total          266                       # number of demand (read+write) MSHR misses (Count)
system.cpu.dcache.overallMshrMisses::cpu.data          266                       # number of overall MSHR misses (Count)
system.cpu.dcache.overallMshrMisses::total          266                       # number of overall MSHR misses (Count)
system.cpu.dcache.demandMshrMissLatency::cpu.data     28215999                       # number of demand (read+write) MSHR miss ticks (Tick)
system.cpu.dcache.demandMshrMissLatency::total     28215999                       # number of demand (read+write) MSHR miss ticks (Tick)
system.cpu.dcache.overallMshrMissLatency::cpu.data     28215999                       # number of overall MSHR miss ticks (Tick)
system.cpu.dcache.overallMshrMissLatency::total     28215999                       # number of overall MSHR miss ticks (Tick)
system.cpu.dcache.demandMshrMissRate::cpu.data     0.064831                       # mshr miss ratio for demand accesses (Ratio)
system.cpu.dcache.demandMshrMissRate::total     0.064831                       # mshr miss ratio for demand accesses (Ratio)
system.cpu.dcache.overallMshrMissRate::cpu.data     0.064831                       # mshr miss ratio for overall accesses (Ratio)
system.cpu.dcache.overallMshrMissRate::total     0.064831                       # mshr miss ratio for overall accesses (Ratio)
system.cpu.dcache.demandAvgMshrMissLatency::cpu.data 106075.184211                       # average overall mshr miss latency ((Cycle/Count))
system.cpu.dcache.demandAvgMshrMissLatency::total 106075.184211                       # average overall mshr miss latency ((Cycle/Count))
system.cpu.dcache.overallAvgMshrMissLatency::cpu.data 106075.184211                       # average overall mshr miss latency ((Cycle/Count))
system.cpu.dcache.overallAvgMshrMissLatency::total 106075.184211                       # average overall mshr miss latency ((Cycle/Count))
system.cpu.dcache.replacements                      0                       # number of replacements (Count)
system.cpu.dcache.ReadReq.hits::cpu.data         2180                       # number of ReadReq hits (Count)
system.cpu.dcache.ReadReq.hits::total            2180                       # number of ReadReq hits (Count)
system.cpu.dcache.ReadReq.misses::cpu.data          278                       # number of ReadReq misses (Count)
system.cpu.dcache.ReadReq.misses::total           278                       # number of ReadReq misses (Count)
system.cpu.dcache.ReadReq.missLatency::cpu.data     27329000                       # number of ReadReq miss ticks (Tick)
system.cpu.dcache.ReadReq.missLatency::total     27329000                       # number of ReadReq miss ticks (Tick)
system.cpu.dcache.ReadReq.accesses::cpu.data         2458                       # number of ReadReq accesses(hits+misses) (Count)
system.cpu.dcache.ReadReq.accesses::total         2458                       # number of ReadReq accesses(hits+misses) (Count)
system.cpu.dcache.ReadReq.missRate::cpu.data     0.113100                       # miss rate for ReadReq accesses (Ratio)
system.cpu.dcache.ReadReq.missRate::total     0.113100                       # miss rate for ReadReq accesses (Ratio)
system.cpu.dcache.ReadReq.avgMissLatency::cpu.data 98305.755396                       # average ReadReq miss latency ((Tick/Count))
system.cpu.dcache.ReadReq.avgMissLatency::total 98305.755396                       # average ReadReq miss latency ((Tick/Count))
system.cpu.dcache.ReadReq.mshrHits::cpu.data          156                       # number of ReadReq MSHR hits (Count)
system.cpu.dcache.ReadReq.mshrHits::total          156                       # number of ReadReq MSHR hits (Count)
system.cpu.dcache.ReadReq.mshrMisses::cpu.data          122                       # number of ReadReq MSHR misses (Count)
system.cpu.dcache.ReadReq.mshrMisses::total          122                       # number of ReadReq MSHR misses (Count)
system.cpu.dcache.ReadReq.mshrMissLatency::cpu.data     13796000                       # number of ReadReq MSHR miss ticks (Tick)
system.cpu.dcache.ReadReq.mshrMissLatency::total     13796000                       # number of ReadReq MSHR miss ticks (Tick)
system.cpu.dcache.ReadReq.mshrMissRate::cpu.data     0.049634                       # mshr miss rate for ReadReq accesses (Ratio)
system.cpu.dcache.ReadReq.mshrMissRate::total     0.049634                       # mshr miss rate for ReadReq accesses (Ratio)
system.cpu.dcache.ReadReq.avgMshrMissLatency::cpu.data 113081.967213                       # average ReadReq mshr miss latency ((Tick/Count))
system.cpu.dcache.ReadReq.avgMshrMissLatency::total 113081.967213                       # average ReadReq mshr miss latency ((Tick/Count))
system.cpu.dcache.WriteReq.hits::cpu.data         1500                       # number of WriteReq hits (Count)
system.cpu.dcache.WriteReq.hits::total           1500                       # number of WriteReq hits (Count)
system.cpu.dcache.WriteReq.misses::cpu.data          145                       # number of WriteReq misses (Count)
system.cpu.dcache.WriteReq.misses::total          145                       # number of WriteReq misses (Count)
system.cpu.dcache.WriteReq.missLatency::cpu.data     14709999                       # number of WriteReq miss ticks (Tick)
system.cpu.dcache.WriteReq.missLatency::total     14709999                       # number of WriteReq miss ticks (Tick)
system.cpu.dcache.WriteReq.accesses::cpu.data         1645                       # number of WriteReq accesses(hits+misses) (Count)
system.cpu.dcache.WriteReq.accesses::total         1645                       # number of WriteReq accesses(hits+misses) (Count)
system.cpu.dcache.WriteReq.missRate::cpu.data     0.088146                       # miss rate for WriteReq accesses (Ratio)
system.cpu.dcache.WriteReq.missRate::total     0.088146                       # miss rate for WriteReq accesses (Ratio)
system.cpu.dcache.WriteReq.avgMissLatency::cpu.data 101448.268966                       # average WriteReq miss latency ((Tick/Count))
system.cpu.dcache.WriteReq.avgMissLatency::total 101448.268966                       # average WriteReq miss latency ((Tick/Count))
system.cpu.dcache.WriteReq.mshrHits::cpu.data            1                       # number of WriteReq MSHR hits (Count)
system.cpu.dcache.WriteReq.mshrHits::total            1                       # number of WriteReq MSHR hits (Count)
system.cpu.dcache.WriteReq.mshrMisses::cpu.data          144                       # number of WriteReq MSHR misses (Count)
system.cpu.dcache.WriteReq.mshrMisses::total          144                       # number of WriteReq MSHR misses (Count)
system.cpu.dcache.WriteReq.mshrMissLatency::cpu.data     14419999                       # number of WriteReq MSHR miss ticks (Tick)
system.cpu.dcache.WriteReq.mshrMissLatency::total     14419999                       # number of WriteReq MSHR miss ticks (Tick)
system.cpu.dcache.WriteReq.mshrMissRate::cpu.data     0.087538                       # mshr miss rate for WriteReq accesses (Ratio)
system.cpu.dcache.WriteReq.mshrMissRate::total     0.087538                       # mshr miss rate for WriteReq accesses (Ratio)
system.cpu.dcache.WriteReq.avgMshrMissLatency::cpu.data 100138.881944                       # average WriteReq mshr miss latency ((Tick/Count))
system.cpu.dcache.WriteReq.avgMshrMissLatency::total 100138.881944                       # average WriteReq mshr miss latency ((Tick/Count))
system.cpu.dcache.power_state.pwrStateResidencyTicks::UNDEFINED     66634000                       # Cumulative time (in ticks) in various power states (Tick)
system.cpu.dcache.tags.tagsInUse           155.612151                       # Average ticks per tags in use ((Tick/Count))
system.cpu.dcache.tags.totalRefs                 3949                       # Total number of references to valid blocks. (Count)
system.cpu.dcache.tags.sampledRefs                239                       # Sample count of references to valid blocks. (Count)
system.cpu.dcache.tags.avgRefs              16.523013                       # Average number of references to valid blocks. ((Count/Count))
system.cpu.dcache.tags.warmupTick              225000                       # The tick when the warmup percentage was hit. (Tick)
system.cpu.dcache.tags.occupancies::cpu.data   155.612151                       # Average occupied blocks per tick, per requestor ((Count/Tick))
system.cpu.dcache.tags.avgOccs::cpu.data     0.151965                       # Average percentage of cache occupancy ((Ratio/Tick))
system.cpu.dcache.tags.avgOccs::total        0.151965                       # Average percentage of cache occupancy ((Ratio/Tick))
system.cpu.dcache.tags.occupanciesTaskId::1024          239                       # Occupied blocks per task id (Count)
system.cpu.dcache.tags.ageTaskId_1024::0           18                       # Occupied blocks per task id, per block age (Count)
system.cpu.dcache.tags.ageTaskId_1024::1          221                       # Occupied blocks per task id, per block age (Count)
system.cpu.dcache.tags.ratioOccsTaskId::1024     0.233398                       # Ratio of occupied blocks and all blocks, per task id (Ratio)
system.cpu.dcache.tags.tagAccesses               8445                       # Number of tag accesses (Count)
system.cpu.dcache.tags.dataAccesses              8445                       # Number of data accesses (Count)
system.cpu.dcache.tags.power_state.pwrStateResidencyTicks::UNDEFINED     66634000                       # Cumulative time (in ticks) in various power states (Tick)
system.cpu.decode.idleCycles                    16470                       # Number of cycles decode is idle (Cycle)
system.cpu.decode.blockedCycles                  8382                       # Number of cycles decode is blocked (Cycle)
system.cpu.decode.runCycles                     21368                       # Number of cycles decode is running (Cycle)
system.cpu.decode.unblockCycles                   514                       # Number of cycles decode is unblocking (Cycle)
system.cpu.decode.squashCycles                    652                       # Number of cycles decode is squashing (Cycle)
system.cpu.decode.branchResolved                 9615                       # Number of times decode resolved a branch (Count)
system.cpu.decode.branchMispred                   223                       # Number of times decode detected a branch misprediction (Count)
system.cpu.decode.decodedInsts                 107974                       # Number of instructions handled by decode (Count)
system.cpu.decode.squashedInsts                  1112                       # Number of squashed instructions handled by decode (Count)
system.cpu.fetch.icacheStallCycles              16820                       # Number of cycles fetch is stalled on an Icache miss (Cycle)
system.cpu.fetch.insts                          60959                       # Number of instructions fetch has processed (Count)
system.cpu.fetch.branches                       12407                       # Number of branches that fetch encountered (Count)
system.cpu.fetch.predictedBranches               9808                       # Number of branches that fetch has predicted taken (Count)
system.cpu.fetch.cycles                         28746                       # Number of cycles fetch has run and was not squashing or blocked (Cycle)
system.cpu.fetch.squashCycles                    1740                       # Number of cycles fetch has spent squashing (Cycle)
system.cpu.fetch.miscStallCycles                  136                       # Number of cycles fetch has spent waiting on interrupts, or bad addresses, or out of MSHRs (Cycle)
system.cpu.fetch.pendingTrapStallCycles           812                       # Number of stall cycles due to pending traps (Cycle)
system.cpu.fetch.pendingQuiesceStallCycles            2                       # Number of stall cycles due to pending quiesce instructions (Cycle)
system.cpu.fetch.cacheLines                      3130                       # Number of cache lines fetched (Count)
system.cpu.fetch.icacheSquashes                   379                       # Number of outstanding Icache misses that were squashed (Count)
system.cpu.fetch.nisnDist::samples              47386                       # Number of instructions fetched each cycle (Total) (Count)
system.cpu.fetch.nisnDist::mean              2.357110                       # Number of instructions fetched each cycle (Total) (Count)
system.cpu.fetch.nisnDist::stdev             3.375795                       # Number of instructions fetched each cycle (Total) (Count)
system.cpu.fetch.nisnDist::underflows               0      0.00%      0.00% # Number of instructions fetched each cycle (Total) (Count)
system.cpu.fetch.nisnDist::0                    24856     52.45%     52.45% # Number of instructions fetched each cycle (Total) (Count)
system.cpu.fetch.nisnDist::1                     8639     18.23%     70.69% # Number of instructions fetched each cycle (Total) (Count)
system.cpu.fetch.nisnDist::2                      304      0.64%     71.33% # Number of instructions fetched each cycle (Total) (Count)
system.cpu.fetch.nisnDist::3                      358      0.76%     72.08% # Number of instructions fetched each cycle (Total) (Count)
system.cpu.fetch.nisnDist::4                      689      1.45%     73.54% # Number of instructions fetched each cycle (Total) (Count)
system.cpu.fetch.nisnDist::5                      268      0.57%     74.10% # Number of instructions fetched each cycle (Total) (Count)
system.cpu.fetch.nisnDist::6                      275      0.58%     74.68% # Number of instructions fetched each cycle (Total) (Count)
system.cpu.fetch.nisnDist::7                      349      0.74%     75.42% # Number of instructions fetched each cycle (Total) (Count)
system.cpu.fetch.nisnDist::8                    11648     24.58%    100.00% # Number of instructions fetched each cycle (Total) (Count)
system.cpu.fetch.nisnDist::overflows                0      0.00%    100.00% # Number of instructions fetched each cycle (Total) (Count)
system.cpu.fetch.nisnDist::min_value                0                       # Number of instructions fetched each cycle (Total) (Count)
system.cpu.fetch.nisnDist::max_value                8                       # Number of instructions fetched each cycle (Total) (Count)
system.cpu.fetch.nisnDist::total                47386                       # Number of instructions fetched each cycle (Total) (Count)
system.cpu.fetch.branchRate                  0.186193                       # Number of branch fetches per cycle (Ratio)
system.cpu.fetch.rate                        0.914820                       # Number of inst fetches per cycle ((Count/Cycle))
system.cpu.icache.demandHits::cpu.inst           2531                       # number of demand (read+write) hits (Count)
system.cpu.icache.demandHits::total              2531                       # number of demand (read+write) hits (Count)
system.cpu.icache.overallHits::cpu.inst          2531                       # number of overall hits (Count)
system.cpu.icache.overallHits::total             2531                       # number of overall hits (Count)
system.cpu.icache.demandMisses::cpu.inst          599                       # number of demand (read+write) misses (Count)
system.cpu.icache.demandMisses::total             599                       # number of demand (read+write) misses (Count)
system.cpu.icache.overallMisses::cpu.inst          599                       # number of overall misses (Count)
system.cpu.icache.overallMisses::total            599                       # number of overall misses (Count)
system.cpu.icache.demandMissLatency::cpu.inst     59933000                       # number of demand (read+write) miss ticks (Tick)
system.cpu.icache.demandMissLatency::total     59933000                       # number of demand (read+write) miss ticks (Tick)
system.cpu.icache.overallMissLatency::cpu.inst     59933000                       # number of overall miss ticks (Tick)
system.cpu.icache.overallMissLatency::total     59933000                       # number of overall miss ticks (Tick)
system.cpu.icache.demandAccesses::cpu.inst         3130                       # number of demand (read+write) accesses (Count)
system.cpu.icache.demandAccesses::total          3130                       # number of demand (read+write) accesses (Count)
system.cpu.icache.overallAccesses::cpu.inst         3130                       # number of overall (read+write) accesses (Count)
system.cpu.icache.overallAccesses::total         3130                       # number of overall (read+write) accesses (Count)
system.cpu.icache.demandMissRate::cpu.inst     0.191374                       # miss rate for demand accesses (Ratio)
system.cpu.icache.demandMissRate::total      0.191374                       # miss rate for demand accesses (Ratio)
system.cpu.icache.overallMissRate::cpu.inst     0.191374                       # miss rate for overall accesses (Ratio)
system.cpu.icache.overallMissRate::total     0.191374                       # miss rate for overall accesses (Ratio)
system.cpu.icache.demandAvgMissLatency::cpu.inst 100055.091820                       # average overall miss latency ((Cycle/Count))
system.cpu.icache.demandAvgMissLatency::total 100055.091820                       # average overall miss latency ((Cycle/Count))
system.cpu.icache.overallAvgMissLatency::cpu.inst 100055.091820                       # average overall miss latency ((Cycle/Count))
system.cpu.icache.overallAvgMissLatency::total 100055.091820                       # average overall miss latency ((Cycle/Count))
system.cpu.icache.blockedCycles::no_mshrs           37                       # number of cycles access was blocked (Cycle)
system.cpu.icache.blockedCycles::no_targets            0                       # number of cycles access was blocked (Cycle)
system.cpu.icache.blockedCauses::no_mshrs            1                       # number of times access was blocked (Count)
system.cpu.icache.blockedCauses::no_targets            0                       # number of times access was blocked (Count)
system.cpu.icache.avgBlocked::no_mshrs             37                       # average number of cycles each access was blocked ((Cycle/Count))
system.cpu.icache.avgBlocked::no_targets          nan                       # average number of cycles each access was blocked ((Cycle/Count))
system.cpu.icache.demandMshrHits::cpu.inst          126                       # number of demand (read+write) MSHR hits (Count)
system.cpu.icache.demandMshrHits::total           126                       # number of demand (read+write) MSHR hits (Count)
system.cpu.icache.overallMshrHits::cpu.inst          126                       # number of overall MSHR hits (Count)
system.cpu.icache.overallMshrHits::total          126                       # number of overall MSHR hits (Count)
system.cpu.icache.demandMshrMisses::cpu.inst          473                       # number of demand (read+write) MSHR misses (Count)
system.cpu.icache.demandMshrMisses::total          473                       # number of demand (read+write) MSHR misses (Count)
system.cpu.icache.overallMshrMisses::cpu.inst          473                       # number of overall MSHR misses (Count)
system.cpu.icache.overallMshrMisses::total          473                       # number of overall MSHR misses (Count)
system.cpu.icache.demandMshrMissLatency::cpu.inst     48614000                       # number of demand (read+write) MSHR miss ticks (Tick)
system.cpu.icache.demandMshrMissLatency::total     48614000                       # number of demand (read+write) MSHR miss ticks (Tick)
system.cpu.icache.overallMshrMissLatency::cpu.inst     48614000                       # number of overall MSHR miss ticks (Tick)
system.cpu.icache.overallMshrMissLatency::total     48614000                       # number of overall MSHR miss ticks (Tick)
system.cpu.icache.demandMshrMissRate::cpu.inst     0.151118                       # mshr miss ratio for demand accesses (Ratio)
system.cpu.icache.demandMshrMissRate::total     0.151118                       # mshr miss ratio for demand accesses (Ratio)
system.cpu.icache.overallMshrMissRate::cpu.inst     0.151118                       # mshr miss ratio for overall accesses (Ratio)
system.cpu.icache.overallMshrMissRate::total     0.151118                       # mshr miss ratio for overall accesses (Ratio)
system.cpu.icache.demandAvgMshrMissLatency::cpu.inst 102778.012685                       # average overall mshr miss latency ((Cycle/Count))
system.cpu.icache.demandAvgMshrMissLatency::total 102778.012685                       # average overall mshr miss latency ((Cycle/Count))
system.cpu.icache.overallAvgMshrMissLatency::cpu.inst 102778.012685                       # average overall mshr miss latency ((Cycle/Count))
system.cpu.icache.overallAvgMshrMissLatency::total 102778.012685                       # average overall mshr miss latency ((Cycle/Count))
system.cpu.icache.replacements                    229                       # number of replacements (Count)
system.cpu.icache.ReadReq.hits::cpu.inst         2531                       # number of ReadReq hits (Count)
system.cpu.icache.ReadReq.hits::total            2531                       # number of ReadReq hits (Count)
system.cpu.icache.ReadReq.misses::cpu.inst          599                       # number of ReadReq misses (Count)
system.cpu.icache.ReadReq.misses::total           599                       # number of ReadReq misses (Count)
system.cpu.icache.ReadReq.missLatency::cpu.inst     59933000                       # number of ReadReq miss ticks (Tick)
system.cpu.icache.ReadReq.missLatency::total     59933000                       # number of ReadReq miss ticks (Tick)
system.cpu.icache.ReadReq.accesses::cpu.inst         3130                       # number of ReadReq accesses(hits+misses) (Count)
system.cpu.icache.ReadReq.accesses::total         3130                       # number of ReadReq accesses(hits+misses) (Count)
system.cpu.icache.ReadReq.missRate::cpu.inst     0.191374                       # miss rate for ReadReq accesses (Ratio)
system.cpu.icache.ReadReq.missRate::total     0.191374                       # miss rate for ReadReq accesses (Ratio)
system.cpu.icache.ReadReq.avgMissLatency::cpu.inst 100055.091820                       # average ReadReq miss latency ((Tick/Count))
system.cpu.icache.ReadReq.avgMissLatency::total 100055.091820                       # average ReadReq miss latency ((Tick/Count))
system.cpu.icache.ReadReq.mshrHits::cpu.inst          126                       # number of ReadReq MSHR hits (Count)
system.cpu.icache.ReadReq.mshrHits::total          126                       # number of ReadReq MSHR hits (Count)
system.cpu.icache.ReadReq.mshrMisses::cpu.inst          473                       # number of ReadReq MSHR misses (Count)
system.cpu.icache.ReadReq.mshrMisses::total          473                       # number of ReadReq MSHR misses (Count)
system.cpu.icache.ReadReq.mshrMissLatency::cpu.inst     48614000                       # number of ReadReq MSHR miss ticks (Tick)
system.cpu.icache.ReadReq.mshrMissLatency::total     48614000                       # number of ReadReq MSHR miss ticks (Tick)
system.cpu.icache.ReadReq.mshrMissRate::cpu.inst     0.151118                       # mshr miss rate for ReadReq accesses (Ratio)
system.cpu.icache.ReadReq.mshrMissRate::total     0.151118                       # mshr miss rate for ReadReq accesses (Ratio)
system.cpu.icache.ReadReq.avgMshrMissLatency::cpu.inst 102778.012685                       # average ReadReq mshr miss latency ((Tick/Count))
system.cpu.icache.ReadReq.avgMshrMissLatency::total 102778.012685                       # average ReadReq mshr miss latency ((Tick/Count))
system.cpu.icache.power_state.pwrStateResidencyTicks::UNDEFINED     66634000                       # Cumulative time (in ticks) in various power states (Tick)
system.cpu.icache.tags.tagsInUse           179.053247                       # Average ticks per tags in use ((Tick/Count))
system.cpu.icache.tags.totalRefs                 3004                       # Total number of references to valid blocks. (Count)
system.cpu.icache.tags.sampledRefs                473                       # Sample count of references to valid blocks. (Count)
system.cpu.icache.tags.avgRefs               6.350951                       # Average number of references to valid blocks. ((Count/Count))
system.cpu.icache.tags.warmupTick              107000                       # The tick when the warmup percentage was hit. (Tick)
system.cpu.icache.tags.occupancies::cpu.inst   179.053247                       # Average occupied blocks per tick, per requestor ((Count/Tick))
system.cpu.icache.tags.avgOccs::cpu.inst     0.699427                       # Average percentage of cache occupancy ((Ratio/Tick))
system.cpu.icache.tags.avgOccs::total        0.699427                       # Average percentage of cache occupancy ((Ratio/Tick))
system.cpu.icache.tags.occupanciesTaskId::1024          244                       # Occupied blocks per task id (Count)
system.cpu.icache.tags.ageTaskId_1024::0           39                       # Occupied blocks per task id, per block age (Count)
system.cpu.icache.tags.ageTaskId_1024::1          205                       # Occupied blocks per task id, per block age (Count)
system.cpu.icache.tags.ratioOccsTaskId::1024     0.953125                       # Ratio of occupied blocks and all blocks, per task id (Ratio)
system.cpu.icache.tags.tagAccesses               6733                       # Number of tag accesses (Count)
system.cpu.icache.tags.dataAccesses              6733                       # Number of data accesses (Count)
system.cpu.icache.tags.power_state.pwrStateResidencyTicks::UNDEFINED     66634000                       # Cumulative time (in ticks) in various power states (Tick)
system.cpu.interrupts.clk_domain.clock          16000                       # Clock period in ticks (Tick)
system.cpu.lsq0.forwLoads                         198                       # Number of loads that had data forwarded from stores (Count)
system.cpu.lsq0.squashedLoads                    1595                       # Number of loads squashed (Count)
system.cpu.lsq0.ignoredResponses                    7                       # Number of memory responses ignored because the instruction is squashed (Count)
system.cpu.lsq0.memOrderViolation                  22                       # Number of memory ordering violations (Count)
system.cpu.lsq0.squashedStores                    980                       # Number of stores squashed (Count)
system.cpu.lsq0.rescheduledLoads                    0                       # Number of loads that were rescheduled (Count)
system.cpu.lsq0.blockedByCache                     13                       # Number of times an access to memory failed due to the cache being blocked (Count)
system.cpu.lsq0.loadToUse::samples               1558                       # Distribution of cycle latency between the first time a load is issued and its completion (Unspecified)
system.cpu.lsq0.loadToUse::mean             12.672657                       # Distribution of cycle latency between the first time a load is issued and its completion (Unspecified)
system.cpu.lsq0.loadToUse::stdev            32.193229                       # Distribution of cycle latency between the first time a load is issued and its completion (Unspecified)
system.cpu.lsq0.loadToUse::0-9                   1418     91.01%     91.01% # Distribution of cycle latency between the first time a load is issued and its completion (Unspecified)
system.cpu.lsq0.loadToUse::10-19                    2      0.13%     91.14% # Distribution of cycle latency between the first time a load is issued and its completion (Unspecified)
system.cpu.lsq0.loadToUse::20-29                    2      0.13%     91.27% # Distribution of cycle latency between the first time a load is issued and its completion (Unspecified)
system.cpu.lsq0.loadToUse::30-39                    1      0.06%     91.34% # Distribution of cycle latency between the first time a load is issued and its completion (Unspecified)
system.cpu.lsq0.loadToUse::40-49                    4      0.26%     91.59% # Distribution of cycle latency between the first time a load is issued and its completion (Unspecified)
system.cpu.lsq0.loadToUse::50-59                    2      0.13%     91.72% # Distribution of cycle latency between the first time a load is issued and its completion (Unspecified)
system.cpu.lsq0.loadToUse::60-69                    4      0.26%     91.98% # Distribution of cycle latency between the first time a load is issued and its completion (Unspecified)
system.cpu.lsq0.loadToUse::70-79                    2      0.13%     92.11% # Distribution of cycle latency between the first time a load is issued and its completion (Unspecified)
system.cpu.lsq0.loadToUse::80-89                    4      0.26%     92.36% # Distribution of cycle latency between the first time a load is issued and its completion (Unspecified)
system.cpu.lsq0.loadToUse::90-99                   24      1.54%     93.90% # Distribution of cycle latency between the first time a load is issued and its completion (Unspecified)
system.cpu.lsq0.loadToUse::100-109                 24      1.54%     95.44% # Distribution of cycle latency between the first time a load is issued and its completion (Unspecified)
system.cpu.lsq0.loadToUse::110-119                 17      1.09%     96.53% # Distribution of cycle latency between the first time a load is issued and its completion (Unspecified)
system.cpu.lsq0.loadToUse::120-129                 34      2.18%     98.72% # Distribution of cycle latency between the first time a load is issued and its completion (Unspecified)
system.cpu.lsq0.loadToUse::130-139                  8      0.51%     99.23% # Distribution of cycle latency between the first time a load is issued and its completion (Unspecified)
system.cpu.lsq0.loadToUse::140-149                  7      0.45%     99.68% # Distribution of cycle latency between the first time a load is issued and its completion (Unspecified)
system.cpu.lsq0.loadToUse::210-219                  3      0.19%     99.87% # Distribution of cycle latency between the first time a load is issued and its completion (Unspecified)
system.cpu.lsq0.loadToUse::220-229                  2      0.13%    100.00% # Distribution of cycle latency between the first time a load is issued and its completion (Unspecified)
system.cpu.lsq0.loadToUse::min_value                2                       # Distribution of cycle latency between the first time a load is issued and its completion (Unspecified)
system.cpu.lsq0.loadToUse::max_value              223                       # Distribution of cycle latency between the first time a load is issued and its completion (Unspecified)
system.cpu.lsq0.loadToUse::total                 1558                       # Distribution of cycle latency between the first time a load is issued and its completion (Unspecified)
system.cpu.mmu.dtb.rdAccesses                    2726                       # TLB accesses on read requests (Count)
system.cpu.mmu.dtb.wrAccesses                    2180                       # TLB accesses on write requests (Count)
system.cpu.mmu.dtb.rdMisses                        78                       # TLB misses on read requests (Count)
system.cpu.mmu.dtb.wrMisses                        22                       # TLB misses on write requests (Count)
system.cpu.mmu.dtb.walker.power_state.pwrStateResidencyTicks::UNDEFINED     66634000                       # Cumulative time (in ticks) in various power states (Tick)
system.cpu.mmu.itb.rdAccesses                       0                       # TLB accesses on read requests (Count)
system.cpu.mmu.itb.wrAccesses                    3272                       # TLB accesses on write requests (Count)
system.cpu.mmu.itb.rdMisses                         0                       # TLB misses on read requests (Count)
system.cpu.mmu.itb.wrMisses                       185                       # TLB misses on write requests (Count)
system.cpu.mmu.itb.walker.power_state.pwrStateResidencyTicks::UNDEFINED     66634000                       # Cumulative time (in ticks) in various power states (Tick)
system.cpu.power_state.pwrStateResidencyTicks::ON     66634000                       # Cumulative time (in ticks) in various power states (Tick)
system.cpu.rename.squashCycles                    652                       # Number of cycles rename is squashing (Cycle)
system.cpu.rename.idleCycles                    16949                       # Number of cycles rename is idle (Cycle)
system.cpu.rename.blockCycles                    2793                       # Number of cycles rename is blocking (Cycle)
system.cpu.rename.serializeStallCycles            154                       # count of cycles rename stalled for serializing inst (Cycle)
system.cpu.rename.runCycles                     21338                       # Number of cycles rename is running (Cycle)
system.cpu.rename.unblockCycles                  5500                       # Number of cycles rename is unblocking (Cycle)
system.cpu.rename.renamedInsts                 106557                       # Number of instructions processed by rename (Count)
system.cpu.rename.ROBFullEvents                    11                       # Number of times rename has blocked due to ROB full (Count)
system.cpu.rename.IQFullEvents                    123                       # Number of times rename has blocked due to IQ full (Count)
system.cpu.rename.SQFullEvents                   5251                       # Number of times rename has blocked due to SQ full (Count)
system.cpu.rename.renamedOperands              134089                       # Number of destination operands rename has renamed (Count)
system.cpu.rename.lookups                      234939                       # Number of register rename lookups that rename has made (Count)
system.cpu.rename.intLookups                   145140                       # Number of integer rename lookups (Count)
[...]
system.membus.snoopFanout::overflows                0      0.00%    100.00% # Request fanout histogram (Count)
system.membus.snoopFanout::min_value                0                       # Request fanout histogram (Count)
system.membus.snoopFanout::max_value                0                       # Request fanout histogram (Count)
system.membus.snoopFanout::total                  740                       # Request fanout histogram (Count)
system.membus.power_state.pwrStateResidencyTicks::UNDEFINED     66634000                       # Cumulative time (in ticks) in various power states (Tick)
system.membus.reqLayer2.occupancy              968246                       # Layer occupancy (ticks) (Tick)
system.membus.reqLayer2.utilization               0.0                       # Layer utilization (Ratio)
system.membus.respLayer0.occupancy            3800992                       # Layer occupancy (ticks) (Tick)
system.membus.respLayer0.utilization              0.1                       # Layer utilization (Ratio)
system.membus.snoop_filter.totRequests            968                       # Total number of requests made to the snoop filter. (Count)
system.membus.snoop_filter.hitSingleRequests          256                       # Number of requests hitting in the snoop filter with a single holder of the requested data. (Count)
system.membus.snoop_filter.hitMultiRequests            0                       # Number of requests hitting in the snoop filter with multiple (>1) holders of the requested data. (Count)
system.membus.snoop_filter.totSnoops                0                       # Total number of snoops made to the snoop filter. (Count)
system.membus.snoop_filter.hitSingleSnoops            0                       # Number of snoops hitting in the snoop filter with a single holder of the requested data. (Count)
system.membus.snoop_filter.hitMultiSnoops            0                       # Number of snoops hitting in the snoop filter with multiple (>1) holders of the requested data. (Count)
system.victimbus.transDist::ReadResp              122                       # Transaction distribution (Count)
system.victimbus.transDist::WritebackClean          239                       # Transaction distribution (Count)
system.victimbus.transDist::UpgradeReq             28                       # Transaction distribution (Count)
system.victimbus.transDist::UpgradeResp            28                       # Transaction distribution (Count)
system.victimbus.transDist::ReadExReq             117                       # Transaction distribution (Count)
system.victimbus.transDist::ReadExResp            117                       # Transaction distribution (Count)
system.victimbus.transDist::ReadSharedReq          122                       # Transaction distribution (Count)
system.victimbus.pktCount_system.cpu.dcache.mem_side_port::system.victimcache.cpu_side_port          534                       # Packet count per connected requestor and responder (Count)
system.victimbus.pktSize_system.cpu.dcache.mem_side_port::system.victimcache.cpu_side_port        15296                       # Cumulative packet size per connected requestor and responder (Byte)
system.victimbus.snoops                           239                       # Total snoops (Count)
system.victimbus.snoopTraffic                   15296                       # Total snoop traffic (Byte)
system.victimbus.snoopFanout::samples             506                       # Request fanout histogram (Count)
system.victimbus.snoopFanout::mean           0.472332                       # Request fanout histogram (Count)
system.victimbus.snoopFanout::stdev          0.499728                       # Request fanout histogram (Count)
system.victimbus.snoopFanout::underflows            0      0.00%      0.00% # Request fanout histogram (Count)
system.victimbus.snoopFanout::0                   267     52.77%     52.77% # Request fanout histogram (Count)
system.victimbus.snoopFanout::1                   239     47.23%    100.00% # Request fanout histogram (Count)
system.victimbus.snoopFanout::overflows             0      0.00%    100.00% # Request fanout histogram (Count)
system.victimbus.snoopFanout::min_value             0                       # Request fanout histogram (Count)
system.victimbus.snoopFanout::max_value             1                       # Request fanout histogram (Count)
system.victimbus.snoopFanout::total               506                       # Request fanout histogram (Count)
system.victimbus.power_state.pwrStateResidencyTicks::UNDEFINED     66634000                       # Cumulative time (in ticks) in various power states (Tick)
system.victimbus.reqLayer0.occupancy           267000                       # Layer occupancy (ticks) (Tick)
system.victimbus.reqLayer0.utilization            0.0                       # Layer utilization (Ratio)
system.victimbus.respLayer0.occupancy          772733                       # Layer occupancy (ticks) (Tick)
system.victimbus.respLayer0.utilization           0.0                       # Layer utilization (Ratio)
system.victimbus.snoop_filter.totRequests          267                       # Total number of requests made to the snoop filter. (Count)
system.victimbus.snoop_filter.hitSingleRequests           28                       # Number of requests hitting in the snoop filter with a single holder of the requested data. (Count)
system.victimbus.snoop_filter.hitMultiRequests            0                       # Number of requests hitting in the snoop filter with multiple (>1) holders of the requested data. (Count)
system.victimbus.snoop_filter.totSnoops           239                       # Total number of snoops made to the snoop filter. (Count)
system.victimbus.snoop_filter.hitSingleSnoops          239                       # Number of snoops hitting in the snoop filter with a single holder of the requested data. (Count)
system.victimbus.snoop_filter.hitMultiSnoops            0                       # Number of snoops hitting in the snoop filter with multiple (>1) holders of the requested data. (Count)
system.victimcache.demandMisses::cpu.data          239                       # number of demand (read+write) misses (Count)
system.victimcache.demandMisses::total            239                       # number of demand (read+write) misses (Count)
system.victimcache.overallMisses::cpu.data          239                       # number of overall misses (Count)
system.victimcache.overallMisses::total           239                       # number of overall misses (Count)
system.victimcache.demandMissLatency::cpu.data     25916000                       # number of demand (read+write) miss ticks (Tick)
system.victimcache.demandMissLatency::total     25916000                       # number of demand (read+write) miss ticks (Tick)
system.victimcache.overallMissLatency::cpu.data     25916000                       # number of overall miss ticks (Tick)
system.victimcache.overallMissLatency::total     25916000                       # number of overall miss ticks (Tick)
system.victimcache.demandAccesses::cpu.data          239                       # number of demand (read+write) accesses (Count)
system.victimcache.demandAccesses::total          239                       # number of demand (read+write) accesses (Count)
system.victimcache.overallAccesses::cpu.data          239                       # number of overall (read+write) accesses (Count)
system.victimcache.overallAccesses::total          239                       # number of overall (read+write) accesses (Count)
system.victimcache.demandMissRate::cpu.data            1                       # miss rate for demand accesses (Ratio)
system.victimcache.demandMissRate::total            1                       # miss rate for demand accesses (Ratio)
system.victimcache.overallMissRate::cpu.data            1                       # miss rate for overall accesses (Ratio)
system.victimcache.overallMissRate::total            1                       # miss rate for overall accesses (Ratio)
system.victimcache.demandAvgMissLatency::cpu.data 108435.146444                       # average overall miss latency ((Cycle/Count))
system.victimcache.demandAvgMissLatency::total 108435.146444                       # average overall miss latency ((Cycle/Count))
system.victimcache.overallAvgMissLatency::cpu.data 108435.146444                       # average overall miss latency ((Cycle/Count))
system.victimcache.overallAvgMissLatency::total 108435.146444                       # average overall miss latency ((Cycle/Count))
system.victimcache.blockedCycles::no_mshrs          454                       # number of cycles access was blocked (Cycle)
system.victimcache.blockedCycles::no_targets            0                       # number of cycles access was blocked (Cycle)
system.victimcache.blockedCauses::no_mshrs            9                       # number of times access was blocked (Count)
system.victimcache.blockedCauses::no_targets            0                       # number of times access was blocked (Count)
system.victimcache.avgBlocked::no_mshrs     50.444444                       # average number of cycles each access was blocked ((Cycle/Count))
system.victimcache.avgBlocked::no_targets          nan                       # average number of cycles each access was blocked ((Cycle/Count))
system.victimcache.writebacks::writebacks          239                       # number of writebacks (Count)
system.victimcache.writebacks::total              239                       # number of writebacks (Count)
system.victimcache.demandMshrMisses::cpu.data          239                       # number of demand (read+write) MSHR misses (Count)
system.victimcache.demandMshrMisses::total          239                       # number of demand (read+write) MSHR misses (Count)
system.victimcache.overallMshrMisses::cpu.data          239                       # number of overall MSHR misses (Count)
system.victimcache.overallMshrMisses::total          239                       # number of overall MSHR misses (Count)
system.victimcache.demandMshrMissLatency::cpu.data     25916000                       # number of demand (read+write) MSHR miss ticks (Tick)
system.victimcache.demandMshrMissLatency::total     25916000                       # number of demand (read+write) MSHR miss ticks (Tick)
system.victimcache.overallMshrMissLatency::cpu.data     25916000                       # number of overall MSHR miss ticks (Tick)
system.victimcache.overallMshrMissLatency::total     25916000                       # number of overall MSHR miss ticks (Tick)
system.victimcache.demandMshrMissRate::cpu.data            1                       # mshr miss ratio for demand accesses (Ratio)
system.victimcache.demandMshrMissRate::total            1                       # mshr miss ratio for demand accesses (Ratio)
system.victimcache.overallMshrMissRate::cpu.data            1                       # mshr miss ratio for overall accesses (Ratio)
system.victimcache.overallMshrMissRate::total            1                       # mshr miss ratio for overall accesses (Ratio)
system.victimcache.demandAvgMshrMissLatency::cpu.data 108435.146444                       # average overall mshr miss latency ((Cycle/Count))
system.victimcache.demandAvgMshrMissLatency::total 108435.146444                       # average overall mshr miss latency ((Cycle/Count))
system.victimcache.overallAvgMshrMissLatency::cpu.data 108435.146444                       # average overall mshr miss latency ((Cycle/Count))
system.victimcache.overallAvgMshrMissLatency::total 108435.146444                       # average overall mshr miss latency ((Cycle/Count))
system.victimcache.replacements                     0                       # number of replacements (Count)
system.victimcache.ReadExReq.misses::cpu.data          117                       # number of ReadExReq misses (Count)
system.victimcache.ReadExReq.misses::total          117                       # number of ReadExReq misses (Count)
system.victimcache.ReadExReq.missLatency::cpu.data     12495000                       # number of ReadExReq miss ticks (Tick)
system.victimcache.ReadExReq.missLatency::total     12495000                       # number of ReadExReq miss ticks (Tick)
system.victimcache.ReadExReq.accesses::cpu.data          117                       # number of ReadExReq accesses(hits+misses) (Count)
system.victimcache.ReadExReq.accesses::total          117                       # number of ReadExReq accesses(hits+misses) (Count)
system.victimcache.ReadExReq.missRate::cpu.data            1                       # miss rate for ReadExReq accesses (Ratio)
system.victimcache.ReadExReq.missRate::total            1                       # miss rate for ReadExReq accesses (Ratio)
system.victimcache.ReadExReq.avgMissLatency::cpu.data 106794.871795                       # average ReadExReq miss latency ((Tick/Count))
system.victimcache.ReadExReq.avgMissLatency::total 106794.871795                       # average ReadExReq miss latency ((Tick/Count))
system.victimcache.ReadExReq.mshrMisses::cpu.data          117                       # number of ReadExReq MSHR misses (Count)
system.victimcache.ReadExReq.mshrMisses::total          117                       # number of ReadExReq MSHR misses (Count)
system.victimcache.ReadExReq.mshrMissLatency::cpu.data     12495000                       # number of ReadExReq MSHR miss ticks (Tick)
system.victimcache.ReadExReq.mshrMissLatency::total     12495000                       # number of ReadExReq MSHR miss ticks (Tick)
system.victimcache.ReadExReq.mshrMissRate::cpu.data            1                       # mshr miss rate for ReadExReq accesses (Ratio)
system.victimcache.ReadExReq.mshrMissRate::total            1                       # mshr miss rate for ReadExReq accesses (Ratio)
system.victimcache.ReadExReq.avgMshrMissLatency::cpu.data 106794.871795                       # average ReadExReq mshr miss latency ((Tick/Count))
system.victimcache.ReadExReq.avgMshrMissLatency::total 106794.871795                       # average ReadExReq mshr miss latency ((Tick/Count))
system.victimcache.ReadSharedReq.misses::cpu.data          122                       # number of ReadSharedReq misses (Count)
system.victimcache.ReadSharedReq.misses::total          122                       # number of ReadSharedReq misses (Count)
system.victimcache.ReadSharedReq.missLatency::cpu.data     13421000                       # number of ReadSharedReq miss ticks (Tick)
system.victimcache.ReadSharedReq.missLatency::total     13421000                       # number of ReadSharedReq miss ticks (Tick)
system.victimcache.ReadSharedReq.accesses::cpu.data          122                       # number of ReadSharedReq accesses(hits+misses) (Count)
system.victimcache.ReadSharedReq.accesses::total          122                       # number of ReadSharedReq accesses(hits+misses) (Count)
system.victimcache.ReadSharedReq.missRate::cpu.data            1                       # miss rate for ReadSharedReq accesses (Ratio)
system.victimcache.ReadSharedReq.missRate::total            1                       # miss rate for ReadSharedReq accesses (Ratio)
system.victimcache.ReadSharedReq.avgMissLatency::cpu.data 110008.196721                       # average ReadSharedReq miss latency ((Tick/Count))
system.victimcache.ReadSharedReq.avgMissLatency::total 110008.196721                       # average ReadSharedReq miss latency ((Tick/Count))
system.victimcache.ReadSharedReq.mshrMisses::cpu.data          122                       # number of ReadSharedReq MSHR misses (Count)
system.victimcache.ReadSharedReq.mshrMisses::total          122                       # number of ReadSharedReq MSHR misses (Count)
system.victimcache.ReadSharedReq.mshrMissLatency::cpu.data     13421000                       # number of ReadSharedReq MSHR miss ticks (Tick)
system.victimcache.ReadSharedReq.mshrMissLatency::total     13421000                       # number of ReadSharedReq MSHR miss ticks (Tick)
system.victimcache.ReadSharedReq.mshrMissRate::cpu.data            1                       # mshr miss rate for ReadSharedReq accesses (Ratio)
system.victimcache.ReadSharedReq.mshrMissRate::total            1                       # mshr miss rate for ReadSharedReq accesses (Ratio)
system.victimcache.ReadSharedReq.avgMshrMissLatency::cpu.data 110008.196721                       # average ReadSharedReq mshr miss latency ((Tick/Count))
system.victimcache.ReadSharedReq.avgMshrMissLatency::total 110008.196721                       # average ReadSharedReq mshr miss latency ((Tick/Count))
system.victimcache.UpgradeReq.misses::cpu.data           28                       # number of UpgradeReq misses (Count)
system.victimcache.UpgradeReq.misses::total           28                       # number of UpgradeReq misses (Count)
system.victimcache.UpgradeReq.accesses::cpu.data           28                       # number of UpgradeReq accesses(hits+misses) (Count)
system.victimcache.UpgradeReq.accesses::total           28                       # number of UpgradeReq accesses(hits+misses) (Count)
system.victimcache.UpgradeReq.missRate::cpu.data            1                       # miss rate for UpgradeReq accesses (Ratio)
system.victimcache.UpgradeReq.missRate::total            1                       # miss rate for UpgradeReq accesses (Ratio)
system.victimcache.UpgradeReq.mshrMisses::cpu.data           28                       # number of UpgradeReq MSHR misses (Count)
system.victimcache.UpgradeReq.mshrMisses::total           28                       # number of UpgradeReq MSHR misses (Count)
system.victimcache.UpgradeReq.mshrMissLatency::cpu.data      1484000                       # number of UpgradeReq MSHR miss ticks (Tick)
system.victimcache.UpgradeReq.mshrMissLatency::total      1484000                       # number of UpgradeReq MSHR miss ticks (Tick)
system.victimcache.UpgradeReq.mshrMissRate::cpu.data            1                       # mshr miss rate for UpgradeReq accesses (Ratio)
system.victimcache.UpgradeReq.mshrMissRate::total            1                       # mshr miss rate for UpgradeReq accesses (Ratio)
system.victimcache.UpgradeReq.avgMshrMissLatency::cpu.data        53000                       # average UpgradeReq mshr miss latency ((Tick/Count))
system.victimcache.UpgradeReq.avgMshrMissLatency::total        53000                       # average UpgradeReq mshr miss latency ((Tick/Count))
system.victimcache.power_state.pwrStateResidencyTicks::UNDEFINED     66634000                       # Cumulative time (in ticks) in various power states (Tick)
system.victimcache.tags.tagsInUse                   0                       # Average ticks per tags in use ((Tick/Count))
system.victimcache.tags.totalRefs                   0                       # Total number of references to valid blocks. (Count)
system.victimcache.tags.sampledRefs                 0                       # Sample count of references to valid blocks. (Count)
system.victimcache.tags.avgRefs                   nan                       # Average number of references to valid blocks. ((Count/Count))
system.victimcache.tags.warmupTick                  0                       # The tick when the warmup percentage was hit. (Tick)
system.victimcache.tags.tagAccesses              2136                       # Number of tag accesses (Count)
system.victimcache.tags.dataAccesses             2136                       # Number of data accesses (Count)
system.victimcache.tags.power_state.pwrStateResidencyTicks::UNDEFINED     66634000                       # Cumulative time (in ticks) in various power states (Tick)
system.workload.inst.arm                            0                       # number of arm instructions executed (Count)
system.workload.inst.quiesce                        0                       # number of quiesce instructions executed (Count)

---------- End Simulation Statistics   ----------
