
---------- Begin Simulation Statistics ----------
simSeconds                                   0.000888                       # Number of seconds simulated (Second)
simTicks                                    887569000                       # Number of ticks simulated (Tick)
finalTick                                   887569000                       # Number of ticks from beginning of simulation (restored from checkpoints and never reset) (Tick)
simFreq                                  1000000000000                       # The number of ticks per simulated second ((Tick/Second))
hostSeconds                                      0.44                       # Real time elapsed on the host (Second)
hostTickRate                               2028602373                       # The number of ticks simulated per host second (ticks/s) ((Tick/Second))
hostMemory                                     643688                       # Number of bytes of host memory used (Byte)
simInsts                                       123099                       # Number of instructions simulated (Count)
simOps                                         245702                       # Number of ops (including micro ops) simulated (Count)
hostInstRate                                   281264                       # Simulator instruction rate (inst/s) ((Count/Second))
hostOpRate                                     561381                       # Simulator op (including micro ops) rate (op/s) ((Count/Second))
system.clk_domain.clock                          1000                       # Clock period in ticks (Tick)
system.clk_domain.voltage_domain.voltage            1                       # Voltage in Volts (Volt)
system.cpu.numCycles                           887569                       # Number of cpu cycles simulated (Cycle)
system.cpu.numWorkItemsStarted                      0                       # Number of work items this cpu started (Count)
system.cpu.numWorkItemsCompleted                    0                       # Number of work items this cpu completed (Count)
system.cpu.dcache.demandHits::cpu.data           2953                       # number of demand (read+write) hits (Count)
system.cpu.dcache.demandHits::total              2953                       # number of demand (read+write) hits (Count)
system.cpu.dcache.overallHits::cpu.data          2953                       # number of overall hits (Count)
system.cpu.dcache.overallHits::total             2953                       # number of overall hits (Count)
system.cpu.dcache.demandMisses::cpu.data        78593                       # number of demand (read+write) misses (Count)
system.cpu.dcache.demandMisses::total           78593                       # number of demand (read+write) misses (Count)
system.cpu.dcache.overallMisses::cpu.data        78593                       # number of overall misses (Count)
system.cpu.dcache.overallMisses::total          78593                       # number of overall misses (Count)
system.cpu.dcache.demandMissLatency::cpu.data    529849000                       # number of demand (read+write) miss ticks (Tick)
system.cpu.dcache.demandMissLatency::total    529849000                       # number of demand (read+write) miss ticks (Tick)
system.cpu.dcache.overallMissLatency::cpu.data    529849000                       # number of overall miss ticks (Tick)
system.cpu.dcache.overallMissLatency::total    529849000                       # number of overall miss ticks (Tick)
system.cpu.dcache.demandAccesses::cpu.data        81546                       # number of demand (read+write) accesses (Count)
system.cpu.dcache.demandAccesses::total         81546                       # number of demand (read+write) accesses (Count)
system.cpu.dcache.overallAccesses::cpu.data        81546                       # number of overall (read+write) accesses (Count)
system.cpu.dcache.overallAccesses::total        81546                       # number of overall (read+write) accesses (Count)
system.cpu.dcache.demandMissRate::cpu.data     0.963787                       # miss rate for demand accesses (Ratio)
system.cpu.dcache.demandMissRate::total      0.963787                       # miss rate for demand accesses (Ratio)
system.cpu.dcache.overallMissRate::cpu.data     0.963787                       # miss rate for overall accesses (Ratio)
system.cpu.dcache.overallMissRate::total     0.963787                       # miss rate for overall accesses (Ratio)
system.cpu.dcache.demandAvgMissLatency::cpu.data  6741.681829                       # average overall miss latency ((Cycle/Count))
system.cpu.dcache.demandAvgMissLatency::total  6741.681829                       # average overall miss latency ((Cycle/Count))
system.cpu.dcache.overallAvgMissLatency::cpu.data  6741.681829                       # average overall miss latency ((Cycle/Count))
system.cpu.dcache.overallAvgMissLatency::total  6741.681829                       # average overall miss latency ((Cycle/Count))
system.cpu.dcache.blockedCycles::no_mshrs            0                       # number of cycles access was blocked (Cycle)
system.cpu.dcache.blockedCycles::no_targets            0                       # number of cycles access was blocked (Cycle)
system.cpu.dcache.blockedCauses::no_mshrs            0                       # number of times access was blocked (Count)
system.cpu.dcache.blockedCauses::no_targets            0                       # number of times access was blocked (Count)
system.cpu.dcache.avgBlocked::no_mshrs            nan                       # average number of cycles each access was blocked ((Cycle/Count))
system.cpu.dcache.avgBlocked::no_targets          nan                       # average number of cycles each access was blocked ((Cycle/Count))
system.cpu.dcache.writebacks::writebacks        78320                       # number of writebacks (Count)
system.cpu.dcache.writebacks::total             78320                       # number of writebacks (Count)
system.cpu.dcache.demandMshrMisses::cpu.data        78593                       # number of demand (read+write) MSHR misses (Count)
system.cpu.dcache.demandMshrMisses::total        78593                       # number of demand (read+write) MSHR misses (Count)
system.cpu.dcache.overallMshrMisses::cpu.data        78593                       # number of overall MSHR misses (Count)
system.cpu.dcache.overallMshrMisses::total        78593                       # number of overall MSHR misses (Count)
system.cpu.dcache.demandMshrMissLatency::cpu.data    371656008                       # number of demand (read+write) MSHR miss ticks (Tick)
system.cpu.dcache.demandMshrMissLatency::total    371656008                       # number of demand (read+write) MSHR miss ticks (Tick)
system.cpu.dcache.overallMshrMissLatency::cpu.data    371656008                       # number of overall MSHR miss ticks (Tick)
system.cpu.dcache.overallMshrMissLatency::total    371656008                       # number of overall MSHR miss ticks (Tick)
system.cpu.dcache.demandMshrMissRate::cpu.data     0.963787                       # mshr miss ratio for demand accesses (Ratio)
system.cpu.dcache.demandMshrMissRate::total     0.963787                       # mshr miss ratio for demand accesses (Ratio)
system.cpu.dcache.overallMshrMissRate::cpu.data     0.963787                       # mshr miss ratio for overall accesses (Ratio)
system.cpu.dcache.overallMshrMissRate::total     0.963787                       # mshr miss ratio for overall accesses (Ratio)
system.cpu.dcache.demandAvgMshrMissLatency::cpu.data  4728.869085                       # average overall mshr miss latency ((Cycle/Count))
system.cpu.dcache.demandAvgMshrMissLatency::total  4728.869085                       # average overall mshr miss latency ((Cycle/Count))
system.cpu.dcache.overallAvgMshrMissLatency::cpu.data  4728.869085                       # average overall mshr miss latency ((Cycle/Count))
system.cpu.dcache.overallAvgMshrMissLatency::total  4728.869085                       # average overall mshr miss latency ((Cycle/Count))
system.cpu.dcache.replacements                  78320                       # number of replacements (Count)
system.cpu.dcache.ReadReq.hits::cpu.data         1451                       # number of ReadReq hits (Count)
system.cpu.dcache.ReadReq.hits::total            1451                       # number of ReadReq hits (Count)
system.cpu.dcache.ReadReq.misses::cpu.data        78448                       # number of ReadReq misses (Count)
system.cpu.dcache.ReadReq.misses::total         78448                       # number of ReadReq misses (Count)
system.cpu.dcache.ReadReq.missLatency::cpu.data    515828000                       # number of ReadReq miss ticks (Tick)
system.cpu.dcache.ReadReq.missLatency::total    515828000                       # number of ReadReq miss ticks (Tick)
system.cpu.dcache.ReadReq.accesses::cpu.data        79899                       # number of ReadReq accesses(hits+misses) (Count)
system.cpu.dcache.ReadReq.accesses::total        79899                       # number of ReadReq accesses(hits+misses) (Count)
system.cpu.dcache.ReadReq.missRate::cpu.data     0.981840                       # miss rate for ReadReq accesses (Ratio)
system.cpu.dcache.ReadReq.missRate::total     0.981840                       # miss rate for ReadReq accesses (Ratio)
system.cpu.dcache.ReadReq.avgMissLatency::cpu.data  6575.413012                       # average ReadReq miss latency ((Tick/Count))
system.cpu.dcache.ReadReq.avgMissLatency::total  6575.413012                       # average ReadReq miss latency ((Tick/Count))
system.cpu.dcache.ReadReq.mshrMisses::cpu.data        78448                       # number of ReadReq MSHR misses (Count)
system.cpu.dcache.ReadReq.mshrMisses::total        78448                       # number of ReadReq MSHR misses (Count)
system.cpu.dcache.ReadReq.mshrMissLatency::cpu.data    357925008                       # number of ReadReq MSHR miss ticks (Tick)
system.cpu.dcache.ReadReq.mshrMissLatency::total    357925008                       # number of ReadReq MSHR miss ticks (Tick)
system.cpu.dcache.ReadReq.mshrMissRate::cpu.data     0.981840                       # mshr miss rate for ReadReq accesses (Ratio)
system.cpu.dcache.ReadReq.mshrMissRate::total     0.981840                       # mshr miss rate for ReadReq accesses (Ratio)
system.cpu.dcache.ReadReq.avgMshrMissLatency::cpu.data  4562.576586                       # average ReadReq mshr miss latency ((Tick/Count))
system.cpu.dcache.ReadReq.avgMshrMissLatency::total  4562.576586                       # average ReadReq mshr miss latency ((Tick/Count))
system.cpu.dcache.WriteReq.hits::cpu.data         1502                       # number of WriteReq hits (Count)
system.cpu.dcache.WriteReq.hits::total           1502                       # number of WriteReq hits (Count)
system.cpu.dcache.WriteReq.misses::cpu.data          145                       # number of WriteReq misses (Count)
system.cpu.dcache.WriteReq.misses::total          145                       # number of WriteReq misses (Count)
system.cpu.dcache.WriteReq.missLatency::cpu.data     14021000                       # number of WriteReq miss ticks (Tick)
system.cpu.dcache.WriteReq.missLatency::total     14021000                       # number of WriteReq miss ticks (Tick)
system.cpu.dcache.WriteReq.accesses::cpu.data         1647                       # number of WriteReq accesses(hits+misses) (Count)
system.cpu.dcache.WriteReq.accesses::total         1647                       # number of WriteReq accesses(hits+misses) (Count)
system.cpu.dcache.WriteReq.missRate::cpu.data     0.088039                       # miss rate for WriteReq accesses (Ratio)
system.cpu.dcache.WriteReq.missRate::total     0.088039                       # miss rate for WriteReq accesses (Ratio)
system.cpu.dcache.WriteReq.avgMissLatency::cpu.data 96696.551724                       # average WriteReq miss latency ((Tick/Count))
system.cpu.dcache.WriteReq.avgMissLatency::total 96696.551724                       # average WriteReq miss latency ((Tick/Count))
system.cpu.dcache.WriteReq.mshrMisses::cpu.data          145                       # number of WriteReq MSHR misses (Count)
system.cpu.dcache.WriteReq.mshrMisses::total          145                       # number of WriteReq MSHR misses (Count)
system.cpu.dcache.WriteReq.mshrMissLatency::cpu.data     13731000                       # number of WriteReq MSHR miss ticks (Tick)
system.cpu.dcache.WriteReq.mshrMissLatency::total     13731000                       # number of WriteReq MSHR miss ticks (Tick)
system.cpu.dcache.WriteReq.mshrMissRate::cpu.data     0.088039                       # mshr miss rate for WriteReq accesses (Ratio)
system.cpu.dcache.WriteReq.mshrMissRate::total     0.088039                       # mshr miss rate for WriteReq accesses (Ratio)
system.cpu.dcache.WriteReq.avgMshrMissLatency::cpu.data 94696.551724                       # average WriteReq mshr miss latency ((Tick/Count))
system.cpu.dcache.WriteReq.avgMshrMissLatency::total 94696.551724                       # average WriteReq mshr miss latency ((Tick/Count))
system.cpu.dcache.power_state.pwrStateResidencyTicks::UNDEFINED    887569000                       # Cumulative time (in ticks) in various power states (Tick)
system.cpu.dcache.tags.tagsInUse           223.346363                       # Average ticks per tags in use ((Tick/Count))
system.cpu.dcache.tags.totalRefs                81546                       # Total number of references to valid blocks. (Count)
system.cpu.dcache.tags.sampledRefs              78569                       # Sample count of references to valid blocks. (Count)
system.cpu.dcache.tags.avgRefs               1.037890                       # Average number of references to valid blocks. ((Count/Count))
system.cpu.dcache.tags.warmupTick              227000                       # The tick when the warmup percentage was hit. (Tick)
system.cpu.dcache.tags.occupancies::cpu.data   223.346363                       # Average occupied blocks per tick, per requestor ((Count/Tick))
system.cpu.dcache.tags.avgOccs::cpu.data     0.218112                       # Average percentage of cache occupancy ((Ratio/Tick))
system.cpu.dcache.tags.avgOccs::total        0.218112                       # Average percentage of cache occupancy ((Ratio/Tick))
system.cpu.dcache.tags.occupanciesTaskId::1024          249                       # Occupied blocks per task id (Count)
system.cpu.dcache.tags.ageTaskId_1024::0           23                       # Occupied blocks per task id, per block age (Count)
system.cpu.dcache.tags.ageTaskId_1024::1           10                       # Occupied blocks per task id, per block age (Count)
system.cpu.dcache.tags.ageTaskId_1024::2          216                       # Occupied blocks per task id, per block age (Count)
system.cpu.dcache.tags.ratioOccsTaskId::1024     0.243164                       # Ratio of occupied blocks and all blocks, per task id (Ratio)
system.cpu.dcache.tags.tagAccesses             241661                       # Number of tag accesses (Count)
system.cpu.dcache.tags.dataAccesses            241661                       # Number of data accesses (Count)
system.cpu.dcache.tags.power_state.pwrStateResidencyTicks::UNDEFINED    887569000                       # Cumulative time (in ticks) in various power states (Tick)
system.cpu.exec_context.thread_0.numInsts       123099                       # Number of instructions committed (Count)
system.cpu.exec_context.thread_0.numOps        245702                       # Number of ops (including micro ops) committed (Count)
system.cpu.exec_context.thread_0.numIntAluAccesses       171225                       # Number of integer alu accesses (Count)
system.cpu.exec_context.thread_0.numFpAluAccesses       148625                       # Number of float alu accesses (Count)
system.cpu.exec_context.thread_0.numVecAluAccesses            0                       # Number of vector alu accesses (Count)
system.cpu.exec_context.thread_0.numCallsReturns          296                       # Number of times a function call or return occured (Count)
system.cpu.exec_context.thread_0.numCondCtrlInsts         9483                       # Number of instructions that are conditional controls (Count)
system.cpu.exec_context.thread_0.numIntInsts       171225                       # Number of integer instructions (Count)
system.cpu.exec_context.thread_0.numFpInsts       148625                       # Number of float instructions (Count)
system.cpu.exec_context.thread_0.numVecInsts            0                       # Number of vector instructions (Count)
system.cpu.exec_context.thread_0.numIntRegReads       358141                       # Number of times the integer registers were read (Count)
system.cpu.exec_context.thread_0.numIntRegWrites        85863                       # Number of times the integer registers were written (Count)
system.cpu.exec_context.thread_0.numFpRegReads       222531                       # Number of times the floating registers were read (Count)
system.cpu.exec_context.thread_0.numFpRegWrites       148103                       # Number of times the floating registers were written (Count)
system.cpu.exec_context.thread_0.numVecRegReads            0                       # Number of times the vector registers were read (Count)
system.cpu.exec_context.thread_0.numVecRegWrites            0                       # Number of times the vector registers were written (Count)
system.cpu.exec_context.thread_0.numVecPredRegReads            0                       # Number of times the predicate registers were read (Count)
system.cpu.exec_context.thread_0.numVecPredRegWrites            0                       # Number of times the predicate registers were written (Count)
system.cpu.exec_context.thread_0.numCCRegReads        57846                       # Number of times the CC registers were read (Count)
system.cpu.exec_context.thread_0.numCCRegWrites        54475                       # Number of times the CC registers were written (Count)
system.cpu.exec_context.thread_0.numMemRefs        76937                       # Number of memory refs (Count)
system.cpu.exec_context.thread_0.numLoadInsts        75289                       # Number of load instructions (Count)
system.cpu.exec_context.thread_0.numStoreInsts         1648                       # Number of store instructions (Count)
system.cpu.exec_context.thread_0.numIdleCycles     0.001000                       # Number of idle cycles (Cycle)
system.cpu.exec_context.thread_0.numBusyCycles 887568.999000                       # Number of busy cycles (Cycle)
system.cpu.exec_context.thread_0.notIdleFraction     1.000000                       # Percentage of non-idle cycles (Ratio)
system.cpu.exec_context.thread_0.idleFraction     0.000000                       # Percentage of idle cycles (Ratio)
system.cpu.exec_context.thread_0.numBranches         9936                       # Number of branches fetched (Count)
system.cpu.exec_context.thread_0.statExecutedInstType::No_OpClass          195      0.08%      0.08% # Class of executed instruction. (Count)
system.cpu.exec_context.thread_0.statExecutedInstType::IntAlu        94337     38.39%     38.47% # Class of executed instruction. (Count)
system.cpu.exec_context.thread_0.statExecutedInstType::IntMult            5      0.00%     38.47% # Class of executed instruction. (Count)
system.cpu.exec_context.thread_0.statExecutedInstType::IntDiv           21      0.01%     38.48% # Class of executed instruction. (Count)
system.cpu.exec_context.thread_0.statExecutedInstType::FloatAdd          135      0.05%     38.54% # Class of executed instruction. (Count)
system.cpu.exec_context.thread_0.statExecutedInstType::FloatCmp            0      0.00%     38.54% # Class of executed instruction. (Count)
system.cpu.exec_context.thread_0.statExecutedInstType::FloatCvt            0      0.00%     38.54% # Class of executed instruction. (Count)
system.cpu.exec_context.thread_0.statExecutedInstType::FloatMult            0      0.00%     38.54% # Class of executed instruction. (Count)
system.cpu.exec_context.thread_0.statExecutedInstType::FloatMultAcc            0      0.00%     38.54% # Class of executed instruction. (Count)
system.cpu.exec_context.thread_0.statExecutedInstType::FloatDiv            0      0.00%     38.54% # Class of executed instruction. (Count)
system.cpu.exec_context.thread_0.statExecutedInstType::FloatMisc            0      0.00%     38.54% # Class of executed instruction. (Count)
system.cpu.exec_context.thread_0.statExecutedInstType::FloatSqrt            0      0.00%     38.54% # Class of executed instruction. (Count)
system.cpu.exec_context.thread_0.statExecutedInstType::SimdAdd            0      0.00%     38.54% # Class of executed instruction. (Count)
system.cpu.exec_context.thread_0.statExecutedInstType::SimdAddAcc            0      0.00%     38.54% # Class of executed instruction. (Count)
system.cpu.exec_context.thread_0.statExecutedInstType::SimdAlu           96      0.04%     38.58% # Class of executed instruction. (Count)
system.cpu.exec_context.thread_0.statExecutedInstType::SimdCmp            0      0.00%     38.58% # Class of executed instruction. (Count)
system.cpu.exec_context.thread_0.statExecutedInstType::SimdCvt           46      0.02%     38.60% # Class of executed instruction. (Count)
system.cpu.exec_context.thread_0.statExecutedInstType::SimdMisc          215      0.09%     38.68% # Class of executed instruction. (Count)
system.cpu.exec_context.thread_0.statExecutedInstType::SimdMult            0      0.00%     38.68% # Class of executed instruction. (Count)
system.cpu.exec_context.thread_0.statExecutedInstType::SimdMultAcc            0      0.00%     38.68% # Class of executed instruction. (Count)
system.cpu.exec_context.thread_0.statExecutedInstType::SimdShift            0      0.00%     38.68% # Class of executed instruction. (Count)
system.cpu.exec_context.thread_0.statExecutedInstType::SimdShiftAcc            0      0.00%     38.68% # Class of executed instruction. (Count)
system.cpu.exec_context.thread_0.statExecutedInstType::SimdDiv            0      0.00%     38.68% # Class of executed instruction. (Count)
system.cpu.exec_context.thread_0.statExecutedInstType::SimdSqrt            0      0.00%     38.68% # Class of executed instruction. (Count)
system.cpu.exec_context.thread_0.statExecutedInstType::SimdFloatAdd        73728     30.01%     68.69% # Class of executed instruction. (Count)
system.cpu.exec_context.thread_0.statExecutedInstType::SimdFloatAlu            0      0.00%     68.69% # Class of executed instruction. (Count)
system.cpu.exec_context.thread_0.statExecutedInstType::SimdFloatCmp            0      0.00%     68.69% # Class of executed instruction. (Count)
system.cpu.exec_context.thread_0.statExecutedInstType::SimdFloatCvt            0      0.00%     68.69% # Class of executed instruction. (Count)
system.cpu.exec_context.thread_0.statExecutedInstType::SimdFloatDiv            0      0.00%     68.69% # Class of executed instruction. (Count)
system.cpu.exec_context.thread_0.statExecutedInstType::SimdFloatMisc            0      0.00%     68.69% # Class of executed instruction. (Count)
system.cpu.exec_context.thread_0.statExecutedInstType::SimdFloatMult            0      0.00%     68.69% # Class of executed instruction. (Count)
system.cpu.exec_context.thread_0.statExecutedInstType::SimdFloatMultAcc            0      0.00%     68.69% # Class of executed instruction. (Count)
system.cpu.exec_context.thread_0.statExecutedInstType::SimdFloatSqrt            0      0.00%     68.69% # Class of executed instruction. (Count)
system.cpu.exec_context.thread_0.statExecutedInstType::SimdReduceAdd            0      0.00%     68.69% # Class of executed instruction. (Count)
system.cpu.exec_context.thread_0.statExecutedInstType::SimdReduceAlu            0      0.00%     68.69% # Class of executed instruction. (Count)
system.cpu.exec_context.thread_0.statExecutedInstType::SimdReduceCmp            0      0.00%     68.69% # Class of executed instruction. (Count)
system.cpu.exec_context.thread_0.statExecutedInstType::SimdFloatReduceAdd            0      0.00%     68.69% # Class of executed instruction. (Count)
system.cpu.exec_context.thread_0.statExecutedInstType::SimdFloatReduceCmp            0      0.00%     68.69% # Class of executed instruction. (Count)
system.cpu.exec_context.thread_0.statExecutedInstType::SimdAes            0      0.00%     68.69% # Class of executed instruction. (Count)
system.cpu.exec_context.thread_0.statExecutedInstType::SimdAesMix            0      0.00%     68.69% # Class of executed instruction. (Count)
system.cpu.exec_context.thread_0.statExecutedInstType::SimdSha1Hash            0      0.00%     68.69% # Class of executed instruction. (Count)
system.cpu.exec_context.thread_0.statExecutedInstType::SimdSha1Hash2            0      0.00%     68.69% # Class of executed instruction. (Count)
system.cpu.exec_context.thread_0.statExecutedInstType::SimdSha256Hash            0      0.00%     68.69% # Class of executed instruction. (Count)
system.cpu.exec_context.thread_0.statExecutedInstType::SimdSha256Hash2            0      0.00%     68.69% # Class of executed instruction. (Count)
system.cpu.exec_context.thread_0.statExecutedInstType::SimdShaSigma2            0      0.00%     68.69% # Class of executed instruction. (Count)
system.cpu.exec_context.thread_0.statExecutedInstType::SimdShaSigma3            0      0.00%     68.69% # Class of executed instruction. (Count)
system.cpu.exec_context.thread_0.statExecutedInstType::SimdPredAlu            0      0.00%     68.69% # Class of executed instruction. (Count)
system.cpu.exec_context.thread_0.statExecutedInstType::MemRead         1499      0.61%     69.30% # Class of executed instruction. (Count)
system.cpu.exec_context.thread_0.statExecutedInstType::MemWrite         1172      0.48%     69.78% # Class of executed instruction. (Count)
system.cpu.exec_context.thread_0.statExecutedInstType::FloatMemRead        73790     30.03%     99.81% # Class of executed instruction. (Count)
system.cpu.exec_context.thread_0.statExecutedInstType::FloatMemWrite          476      0.19%    100.00% # Class of executed instruction. (Count)
system.cpu.exec_context.thread_0.statExecutedInstType::IprAccess            0      0.00%    100.00% # Class of executed instruction. (Count)
system.cpu.exec_context.thread_0.statExecutedInstType::InstPrefetch            0      0.00%    100.00% # Class of executed instruction. (Count)
system.cpu.exec_context.thread_0.statExecutedInstType::total       245715                       # Class of executed instruction. (Count)
system.cpu.icache.demandHits::cpu.inst         166357                       # number of demand (read+write) hits (Count)
system.cpu.icache.demandHits::total            166357                       # number of demand (read+write) hits (Count)
system.cpu.icache.overallHits::cpu.inst        166357                       # number of overall hits (Count)
system.cpu.icache.overallHits::total           166357                       # number of overall hits (Count)
system.cpu.icache.demandMisses::cpu.inst          409                       # number of demand (read+write) misses (Count)
system.cpu.icache.demandMisses::total             409                       # number of demand (read+write) misses (Count)
system.cpu.icache.overallMisses::cpu.inst          409                       # number of overall misses (Count)
system.cpu.icache.overallMisses::total            409                       # number of overall misses (Count)
system.cpu.icache.demandMissLatency::cpu.inst     42146000                       # number of demand (read+write) miss ticks (Tick)
system.cpu.icache.demandMissLatency::total     42146000                       # number of demand (read+write) miss ticks (Tick)
system.cpu.icache.overallMissLatency::cpu.inst     42146000                       # number of overall miss ticks (Tick)
system.cpu.icache.overallMissLatency::total     42146000                       # number of overall miss ticks (Tick)
system.cpu.icache.demandAccesses::cpu.inst       166766                       # number of demand (read+write) accesses (Count)
system.cpu.icache.demandAccesses::total        166766                       # number of demand (read+write) accesses (Count)
system.cpu.icache.overallAccesses::cpu.inst       166766                       # number of overall (read+write) accesses (Count)
system.cpu.icache.overallAccesses::total       166766                       # number of overall (read+write) accesses (Count)
system.cpu.icache.demandMissRate::cpu.inst     0.002453                       # miss rate for demand accesses (Ratio)
system.cpu.icache.demandMissRate::total      0.002453                       # miss rate for demand accesses (Ratio)
system.cpu.icache.overallMissRate::cpu.inst     0.002453                       # miss rate for overall accesses (Ratio)
system.cpu.icache.overallMissRate::total     0.002453                       # miss rate for overall accesses (Ratio)
system.cpu.icache.demandAvgMissLatency::cpu.inst 103046.454768                       # average overall miss latency ((Cycle/Count))
system.cpu.icache.demandAvgMissLatency::total 103046.454768                       # average overall miss latency ((Cycle/Count))
system.cpu.icache.overallAvgMissLatency::cpu.inst 103046.454768                       # average overall miss latency ((Cycle/Count))
system.cpu.icache.overallAvgMissLatency::total 103046.454768                       # average overall miss latency ((Cycle/Count))
system.cpu.icache.blockedCycles::no_mshrs            0                       # number of cycles access was blocked (Cycle)
system.cpu.icache.blockedCycles::no_targets            0                       # number of cycles access was blocked (Cycle)
system.cpu.icache.blockedCauses::no_mshrs            0                       # number of times access was blocked (Count)
system.cpu.icache.blockedCauses::no_targets            0                       # number of times access was blocked (Count)
system.cpu.icache.avgBlocked::no_mshrs            nan                       # average number of cycles each access was blocked ((Cycle/Count))
system.cpu.icache.avgBlocked::no_targets          nan                       # average number of cycles each access was blocked ((Cycle/Count))
system.cpu.icache.demandMshrMisses::cpu.inst          409                       # number of demand (read+write) MSHR misses (Count)
system.cpu.icache.demandMshrMisses::total          409                       # number of demand (read+write) MSHR misses (Count)
system.cpu.icache.overallMshrMisses::cpu.inst          409                       # number of overall MSHR misses (Count)
system.cpu.icache.overallMshrMisses::total          409                       # number of overall MSHR misses (Count)
system.cpu.icache.demandMshrMissLatency::cpu.inst     41328000                       # number of demand (read+write) MSHR miss ticks (Tick)
system.cpu.icache.demandMshrMissLatency::total     41328000                       # number of demand (read+write) MSHR miss ticks (Tick)
system.cpu.icache.overallMshrMissLatency::cpu.inst     41328000                       # number of overall MSHR miss ticks (Tick)
system.cpu.icache.overallMshrMissLatency::total     41328000                       # number of overall MSHR miss ticks (Tick)
system.cpu.icache.demandMshrMissRate::cpu.inst     0.002453                       # mshr miss ratio for demand accesses (Ratio)
system.cpu.icache.demandMshrMissRate::total     0.002453                       # mshr miss ratio for demand accesses (Ratio)
system.cpu.icache.overallMshrMissRate::cpu.inst     0.002453                       # mshr miss ratio for overall accesses (Ratio)
system.cpu.icache.overallMshrMissRate::total     0.002453                       # mshr miss ratio for overall accesses (Ratio)
system.cpu.icache.demandAvgMshrMissLatency::cpu.inst 101046.454768                       # average overall mshr miss latency ((Cycle/Count))
system.cpu.icache.demandAvgMshrMissLatency::total 101046.454768                       # average overall mshr miss latency ((Cycle/Count))
system.cpu.icache.overallAvgMshrMissLatency::cpu.inst 101046.454768                       # average overall mshr miss latency ((Cycle/Count))
system.cpu.icache.overallAvgMshrMissLatency::total 101046.454768                       # average overall mshr miss latency ((Cycle/Count))
system.cpu.icache.replacements                    171                       # number of replacements (Count)
system.cpu.icache.ReadReq.hits::cpu.inst       166357                       # number of ReadReq hits (Count)
system.cpu.icache.ReadReq.hits::total          166357                       # number of ReadReq hits (Count)
system.cpu.icache.ReadReq.misses::cpu.inst          409                       # number of ReadReq misses (Count)
system.cpu.icache.ReadReq.misses::total           409                       # number of ReadReq misses (Count)
system.cpu.icache.ReadReq.missLatency::cpu.inst     42146000                       # number of ReadReq miss ticks (Tick)
system.cpu.icache.ReadReq.missLatency::total     42146000                       # number of ReadReq miss ticks (Tick)
system.cpu.icache.ReadReq.accesses::cpu.inst       166766                       # number of ReadReq accesses(hits+misses) (Count)
system.cpu.icache.ReadReq.accesses::total       166766                       # number of ReadReq accesses(hits+misses) (Count)
system.cpu.icache.ReadReq.missRate::cpu.inst     0.002453                       # miss rate for ReadReq accesses (Ratio)
system.cpu.icache.ReadReq.missRate::total     0.002453                       # miss rate for ReadReq accesses (Ratio)
system.cpu.icache.ReadReq.avgMissLatency::cpu.inst 103046.454768                       # average ReadReq miss latency ((Tick/Count))
system.cpu.icache.ReadReq.avgMissLatency::total 103046.454768                       # average ReadReq miss latency ((Tick/Count))
system.cpu.icache.ReadReq.mshrMisses::cpu.inst          409                       # number of ReadReq MSHR misses (Count)
system.cpu.icache.ReadReq.mshrMisses::total          409                       # number of ReadReq MSHR misses (Count)
system.cpu.icache.ReadReq.mshrMissLatency::cpu.inst     41328000                       # number of ReadReq MSHR miss ticks (Tick)
system.cpu.icache.ReadReq.mshrMissLatency::total     41328000                       # number of ReadReq MSHR miss ticks (Tick)
system.cpu.icache.ReadReq.mshrMissRate::cpu.inst     0.002453                       # mshr miss rate for ReadReq accesses (Ratio)
system.cpu.icache.ReadReq.mshrMissRate::total     0.002453                       # mshr miss rate for ReadReq accesses (Ratio)
system.cpu.icache.ReadReq.avgMshrMissLatency::cpu.inst 101046.454768                       # average ReadReq mshr miss latency ((Tick/Count))
system.cpu.icache.ReadReq.avgMshrMissLatency::total 101046.454768                       # average ReadReq mshr miss latency ((Tick/Count))
system.cpu.icache.power_state.pwrStateResidencyTicks::UNDEFINED    887569000                       # Cumulative time (in ticks) in various power states (Tick)
system.cpu.icache.tags.tagsInUse           223.757667                       # Average ticks per tags in use ((Tick/Count))
system.cpu.icache.tags.totalRefs               166766                       # Total number of references to valid blocks. (Count)
system.cpu.icache.tags.sampledRefs                409                       # Sample count of references to valid blocks. (Count)
system.cpu.icache.tags.avgRefs             407.740831                       # Average number of references to valid blocks. ((Count/Count))
system.cpu.icache.tags.warmupTick              107000                       # The tick when the warmup percentage was hit. (Tick)
system.cpu.icache.tags.occupancies::cpu.inst   223.757667                       # Average occupied blocks per tick, per requestor ((Count/Tick))
system.cpu.icache.tags.avgOccs::cpu.inst     0.874053                       # Average percentage of cache occupancy ((Ratio/Tick))
system.cpu.icache.tags.avgOccs::total        0.874053                       # Average percentage of cache occupancy ((Ratio/Tick))
system.cpu.icache.tags.occupanciesTaskId::1024          238                       # Occupied blocks per task id (Count)
system.cpu.icache.tags.ageTaskId_1024::0           36                       # Occupied blocks per task id, per block age (Count)
system.cpu.icache.tags.ageTaskId_1024::2          202                       # Occupied blocks per task id, per block age (Count)
system.cpu.icache.tags.ratioOccsTaskId::1024     0.929688                       # Ratio of occupied blocks and all blocks, per task id (Ratio)
system.cpu.icache.tags.tagAccesses             333941                       # Number of tag accesses (Count)
system.cpu.icache.tags.dataAccesses            333941                       # Number of data accesses (Count)
system.cpu.icache.tags.power_state.pwrStateResidencyTicks::UNDEFINED    887569000                       # Cumulative time (in ticks) in various power states (Tick)
system.cpu.interrupts.clk_domain.clock          16000                       # Clock period in ticks (Tick)
system.cpu.mmu.dtb.rdAccesses                   79900                       # TLB accesses on read requests (Count)
system.cpu.mmu.dtb.wrAccesses                    1649                       # TLB accesses on write requests (Count)
system.cpu.mmu.dtb.rdMisses                        20                       # TLB misses on read requests (Count)
system.cpu.mmu.dtb.wrMisses                         9                       # TLB misses on write requests (Count)
system.cpu.mmu.dtb.walker.power_state.pwrStateResidencyTicks::UNDEFINED    887569000                       # Cumulative time (in ticks) in various power states (Tick)
system.cpu.mmu.itb.rdAccesses                       0                       # TLB accesses on read requests (Count)
system.cpu.mmu.itb.wrAccesses                  166766                       # TLB accesses on write requests (Count)
system.cpu.mmu.itb.rdMisses                         0                       # TLB misses on read requests (Count)
system.cpu.mmu.itb.wrMisses                        38                       # TLB misses on write requests (Count)
system.cpu.mmu.itb.walker.power_state.pwrStateResidencyTicks::UNDEFINED    887569000                       # Cumulative time (in ticks) in various power states (Tick)
system.cpu.power_state.pwrStateResidencyTicks::ON    887569000                       # Cumulative time (in ticks) in various power states (Tick)
system.cpu.thread_0.numInsts                        0                       # Number of Instructions committed (Count)
system.cpu.thread_0.numOps                          0                       # Number of Ops committed (Count)
system.cpu.thread_0.numMemRefs                      0                       # Number of Memory References (Count)
system.cpu.workload.numSyscalls                    10                       # Number of system calls (Count)
system.l2bus.transDist::ReadResp                 4571                       # Transaction distribution (Count)
system.l2bus.transDist::WritebackDirty              2                       # Transaction distribution (Count)
system.l2bus.transDist::WritebackClean           4739                       # Transaction distribution (Count)
system.l2bus.transDist::CleanEvict                171                       # Transaction distribution (Count)
system.l2bus.transDist::UpgradeReq                 24                       # Transaction distribution (Count)
system.l2bus.transDist::UpgradeResp                24                       # Transaction distribution (Count)
system.l2bus.transDist::ReadExReq                 121                       # Transaction distribution (Count)
system.l2bus.transDist::ReadExResp                121                       # Transaction distribution (Count)
system.l2bus.transDist::ReadCleanReq             4162                       # Transaction distribution (Count)
system.l2bus.transDist::ReadSharedReq             409                       # Transaction distribution (Count)
system.l2bus.pktCount_system.cpu.icache.mem_side_port::system.l2cache.cpu_side_port          989                       # Packet count per connected requestor and responder (Count)
system.l2bus.pktCount_system.victimcache.mem_side_port::system.l2cache.cpu_side_port        12632                       # Packet count per connected requestor and responder (Count)
system.l2bus.pktCount::total                    13621                       # Packet count per connected requestor and responder (Count)
system.l2bus.pktSize_system.cpu.icache.mem_side_port::system.l2cache.cpu_side_port        26176                       # Cumulative packet size per connected requestor and responder (Byte)
system.l2bus.pktSize_system.victimcache.mem_side_port::system.l2cache.cpu_side_port       531264                       # Cumulative packet size per connected requestor and responder (Byte)
system.l2bus.pktSize::total                    557440                       # Cumulative packet size per connected requestor and responder (Byte)
system.l2bus.snoops                               723                       # Total snoops (Count)
system.l2bus.snoopTraffic                       46272                       # Total snoop traffic (Byte)
system.l2bus.snoopFanout::samples                5439                       # Request fanout histogram (Count)
system.l2bus.snoopFanout::mean               0.132929                       # Request fanout histogram (Count)
system.l2bus.snoopFanout::stdev              0.339529                       # Request fanout histogram (Count)
system.l2bus.snoopFanout::underflows                0      0.00%      0.00% # Request fanout histogram (Count)
system.l2bus.snoopFanout::0                      4716     86.71%     86.71% # Request fanout histogram (Count)
system.l2bus.snoopFanout::1                       723     13.29%    100.00% # Request fanout histogram (Count)
system.l2bus.snoopFanout::2                         0      0.00%    100.00% # Request fanout histogram (Count)
system.l2bus.snoopFanout::overflows                 0      0.00%    100.00% # Request fanout histogram (Count)
system.l2bus.snoopFanout::min_value                 0                       # Request fanout histogram (Count)
system.l2bus.snoopFanout::max_value                 1                       # Request fanout histogram (Count)
system.l2bus.snoopFanout::total                  5439                       # Request fanout histogram (Count)
system.l2bus.power_state.pwrStateResidencyTicks::UNDEFINED    887569000                       # Cumulative time (in ticks) in various power states (Tick)
system.l2bus.reqLayer0.occupancy             25257675                       # Layer occupancy (ticks) (Tick)
system.l2bus.reqLayer0.utilization                0.0                       # Layer utilization (Ratio)
system.l2bus.respLayer0.occupancy             1227000                       # Layer occupancy (ticks) (Tick)
system.l2bus.respLayer0.utilization               0.0                       # Layer utilization (Ratio)
system.l2bus.respLayer1.occupancy            12873000                       # Layer occupancy (ticks) (Tick)
system.l2bus.respLayer1.utilization               0.0                       # Layer utilization (Ratio)
system.l2bus.snoop_filter.totRequests            8905                       # Total number of requests made to the snoop filter. (Count)
system.l2bus.snoop_filter.hitSingleRequests         4213                       # Number of requests hitting in the snoop filter with a single holder of the requested data. (Count)
system.l2bus.snoop_filter.hitMultiRequests            0                       # Number of requests hitting in the snoop filter with multiple (>1) holders of the requested data. (Count)
system.l2bus.snoop_filter.totSnoops               723                       # Total number of snoops made to the snoop filter. (Count)
system.l2bus.snoop_filter.hitSingleSnoops          723                       # Number of snoops hitting in the snoop filter with a single holder of the requested data. (Count)
system.l2bus.snoop_filter.hitMultiSnoops            0                       # Number of snoops hitting in the snoop filter with multiple (>1) holders of the requested data. (Count)
system.l2cache.demandHits::cpu.data              3969                       # number of demand (read+write) hits (Count)
system.l2cache.demandHits::total                 3969                       # number of demand (read+write) hits (Count)
system.l2cache.overallHits::cpu.data             3969                       # number of overall hits (Count)
system.l2cache.overallHits::total                3969                       # number of overall hits (Count)
system.l2cache.demandMisses::cpu.inst             409                       # number of demand (read+write) misses (Count)
system.l2cache.demandMisses::cpu.data             314                       # number of demand (read+write) misses (Count)
system.l2cache.demandMisses::total                723                       # number of demand (read+write) misses (Count)
system.l2cache.overallMisses::cpu.inst            409                       # number of overall misses (Count)
system.l2cache.overallMisses::cpu.data            314                       # number of overall misses (Count)
system.l2cache.overallMisses::total               723                       # number of overall misses (Count)
system.l2cache.demandMissLatency::cpu.inst     40101000                       # number of demand (read+write) miss ticks (Tick)
system.l2cache.demandMissLatency::cpu.data     33417686                       # number of demand (read+write) miss ticks (Tick)
system.l2cache.demandMissLatency::total      73518686                       # number of demand (read+write) miss ticks (Tick)
system.l2cache.overallMissLatency::cpu.inst     40101000                       # number of overall miss ticks (Tick)
system.l2cache.overallMissLatency::cpu.data     33417686                       # number of overall miss ticks (Tick)
system.l2cache.overallMissLatency::total     73518686                       # number of overall miss ticks (Tick)
system.l2cache.demandAccesses::cpu.inst           409                       # number of demand (read+write) accesses (Count)
system.l2cache.demandAccesses::cpu.data          4283                       # number of demand (read+write) accesses (Count)
system.l2cache.demandAccesses::total             4692                       # number of demand (read+write) accesses (Count)
system.l2cache.overallAccesses::cpu.inst          409                       # number of overall (read+write) accesses (Count)
system.l2cache.overallAccesses::cpu.data         4283                       # number of overall (read+write) accesses (Count)
system.l2cache.overallAccesses::total            4692                       # number of overall (read+write) accesses (Count)
system.l2cache.demandMissRate::cpu.inst             1                       # miss rate for demand accesses (Ratio)
system.l2cache.demandMissRate::cpu.data      0.073313                       # miss rate for demand accesses (Ratio)
system.l2cache.demandMissRate::total         0.154092                       # miss rate for demand accesses (Ratio)
system.l2cache.overallMissRate::cpu.inst            1                       # miss rate for overall accesses (Ratio)
system.l2cache.overallMissRate::cpu.data     0.073313                       # miss rate for overall accesses (Ratio)
system.l2cache.overallMissRate::total        0.154092                       # miss rate for overall accesses (Ratio)
system.l2cache.demandAvgMissLatency::cpu.inst 98046.454768                       # average overall miss latency ((Cycle/Count))
system.l2cache.demandAvgMissLatency::cpu.data 106425.751592                       # average overall miss latency ((Cycle/Count))
system.l2cache.demandAvgMissLatency::total 101685.596127                       # average overall miss latency ((Cycle/Count))
system.l2cache.overallAvgMissLatency::cpu.inst 98046.454768                       # average overall miss latency ((Cycle/Count))
system.l2cache.overallAvgMissLatency::cpu.data 106425.751592                       # average overall miss latency ((Cycle/Count))
system.l2cache.overallAvgMissLatency::total 101685.596127                       # average overall miss latency ((Cycle/Count))
system.l2cache.blockedCycles::no_mshrs              0                       # number of cycles access was blocked (Cycle)
system.l2cache.blockedCycles::no_targets            0                       # number of cycles access was blocked (Cycle)
system.l2cache.blockedCauses::no_mshrs              0                       # number of times access was blocked (Count)
system.l2cache.blockedCauses::no_targets            0                       # number of times access was blocked (Count)
system.l2cache.avgBlocked::no_mshrs               nan                       # average number of cycles each access was blocked ((Cycle/Count))
system.l2cache.avgBlocked::no_targets             nan                       # average number of cycles each access was blocked ((Cycle/Count))
system.l2cache.writebacks::writebacks             723                       # number of writebacks (Count)
system.l2cache.writebacks::total                  723                       # number of writebacks (Count)
system.l2cache.demandMshrMisses::cpu.inst          409                       # number of demand (read+write) MSHR misses (Count)
system.l2cache.demandMshrMisses::cpu.data          314                       # number of demand (read+write) MSHR misses (Count)
system.l2cache.demandMshrMisses::total            723                       # number of demand (read+write) MSHR misses (Count)
system.l2cache.overallMshrMisses::cpu.inst          409                       # number of overall MSHR misses (Count)
system.l2cache.overallMshrMisses::cpu.data          314                       # number of overall MSHR misses (Count)
system.l2cache.overallMshrMisses::total           723                       # number of overall MSHR misses (Count)
system.l2cache.demandMshrMissLatency::cpu.inst     31921000                       # number of demand (read+write) MSHR miss ticks (Tick)
system.l2cache.demandMshrMissLatency::cpu.data     27137686                       # number of demand (read+write) MSHR miss ticks (Tick)
system.l2cache.demandMshrMissLatency::total     59058686                       # number of demand (read+write) MSHR miss ticks (Tick)
system.l2cache.overallMshrMissLatency::cpu.inst     31921000                       # number of overall MSHR miss ticks (Tick)
system.l2cache.overallMshrMissLatency::cpu.data     27137686                       # number of overall MSHR miss ticks (Tick)
system.l2cache.overallMshrMissLatency::total     59058686                       # number of overall MSHR miss ticks (Tick)
system.l2cache.demandMshrMissRate::cpu.inst            1                       # mshr miss ratio for demand accesses (Ratio)
system.l2cache.demandMshrMissRate::cpu.data     0.073313                       # mshr miss ratio for demand accesses (Ratio)
system.l2cache.demandMshrMissRate::total     0.154092                       # mshr miss ratio for demand accesses (Ratio)
system.l2cache.overallMshrMissRate::cpu.inst            1                       # mshr miss ratio for overall accesses (Ratio)
system.l2cache.overallMshrMissRate::cpu.data     0.073313                       # mshr miss ratio for overall accesses (Ratio)
system.l2cache.overallMshrMissRate::total     0.154092                       # mshr miss ratio for overall accesses (Ratio)
system.l2cache.demandAvgMshrMissLatency::cpu.inst 78046.454768                       # average overall mshr miss latency ((Cycle/Count))
system.l2cache.demandAvgMshrMissLatency::cpu.data 86425.751592                       # average overall mshr miss latency ((Cycle/Count))
system.l2cache.demandAvgMshrMissLatency::total 81685.596127                       # average overall mshr miss latency ((Cycle/Count))
system.l2cache.overallAvgMshrMissLatency::cpu.inst 78046.454768                       # average overall mshr miss latency ((Cycle/Count))
system.l2cache.overallAvgMshrMissLatency::cpu.data 86425.751592                       # average overall mshr miss latency ((Cycle/Count))
system.l2cache.overallAvgMshrMissLatency::total 81685.596127                       # average overall mshr miss latency ((Cycle/Count))
system.l2cache.replacements                         0                       # number of replacements (Count)
system.l2cache.CleanEvict.mshrMisses::writebacks          171                       # number of CleanEvict MSHR misses (Count)
system.l2cache.CleanEvict.mshrMisses::total          171                       # number of CleanEvict MSHR misses (Count)
system.l2cache.CleanEvict.mshrMissRate::writebacks          inf                       # mshr miss rate for CleanEvict accesses (Ratio)
system.l2cache.CleanEvict.mshrMissRate::total          inf                       # mshr miss rate for CleanEvict accesses (Ratio)
system.l2cache.ReadCleanReq.hits::cpu.data         3969                       # number of ReadCleanReq hits (Count)
system.l2cache.ReadCleanReq.hits::total          3969                       # number of ReadCleanReq hits (Count)
system.l2cache.ReadCleanReq.misses::cpu.data          193                       # number of ReadCleanReq misses (Count)
system.l2cache.ReadCleanReq.misses::total          193                       # number of ReadCleanReq misses (Count)
system.l2cache.ReadCleanReq.missLatency::cpu.data     21514807                       # number of ReadCleanReq miss ticks (Tick)
system.l2cache.ReadCleanReq.missLatency::total     21514807                       # number of ReadCleanReq miss ticks (Tick)
system.l2cache.ReadCleanReq.accesses::cpu.data         4162                       # number of ReadCleanReq accesses(hits+misses) (Count)
system.l2cache.ReadCleanReq.accesses::total         4162                       # number of ReadCleanReq accesses(hits+misses) (Count)
system.l2cache.ReadCleanReq.missRate::cpu.data     0.046372                       # miss rate for ReadCleanReq accesses (Ratio)
system.l2cache.ReadCleanReq.missRate::total     0.046372                       # miss rate for ReadCleanReq accesses (Ratio)
system.l2cache.ReadCleanReq.avgMissLatency::cpu.data 111475.683938                       # average ReadCleanReq miss latency ((Tick/Count))
system.l2cache.ReadCleanReq.avgMissLatency::total 111475.683938                       # average ReadCleanReq miss latency ((Tick/Count))
system.l2cache.ReadCleanReq.mshrMisses::cpu.data          193                       # number of ReadCleanReq MSHR misses (Count)
system.l2cache.ReadCleanReq.mshrMisses::total          193                       # number of ReadCleanReq MSHR misses (Count)
system.l2cache.ReadCleanReq.mshrMissLatency::cpu.data     17654807                       # number of ReadCleanReq MSHR miss ticks (Tick)
system.l2cache.ReadCleanReq.mshrMissLatency::total     17654807                       # number of ReadCleanReq MSHR miss ticks (Tick)
system.l2cache.ReadCleanReq.mshrMissRate::cpu.data     0.046372                       # mshr miss rate for ReadCleanReq accesses (Ratio)
system.l2cache.ReadCleanReq.mshrMissRate::total     0.046372                       # mshr miss rate for ReadCleanReq accesses (Ratio)
system.l2cache.ReadCleanReq.avgMshrMissLatency::cpu.data 91475.683938                       # average ReadCleanReq mshr miss latency ((Tick/Count))
system.l2cache.ReadCleanReq.avgMshrMissLatency::total 91475.683938                       # average ReadCleanReq mshr miss latency ((Tick/Count))
system.l2cache.ReadExReq.misses::cpu.data          121                       # number of ReadExReq misses (Count)
system.l2cache.ReadExReq.misses::total            121                       # number of ReadExReq misses (Count)
system.l2cache.ReadExReq.missLatency::cpu.data     11902879                       # number of ReadExReq miss ticks (Tick)
system.l2cache.ReadExReq.missLatency::total     11902879                       # number of ReadExReq miss ticks (Tick)
system.l2cache.ReadExReq.accesses::cpu.data          121                       # number of ReadExReq accesses(hits+misses) (Count)
system.l2cache.ReadExReq.accesses::total          121                       # number of ReadExReq accesses(hits+misses) (Count)
system.l2cache.ReadExReq.missRate::cpu.data            1                       # miss rate for ReadExReq accesses (Ratio)
system.l2cache.ReadExReq.missRate::total            1                       # miss rate for ReadExReq accesses (Ratio)
system.l2cache.ReadExReq.avgMissLatency::cpu.data 98370.900826                       # average ReadExReq miss latency ((Tick/Count))
system.l2cache.ReadExReq.avgMissLatency::total 98370.900826                       # average ReadExReq miss latency ((Tick/Count))
system.l2cache.ReadExReq.mshrMisses::cpu.data          121                       # number of ReadExReq MSHR misses (Count)
system.l2cache.ReadExReq.mshrMisses::total          121                       # number of ReadExReq MSHR misses (Count)
system.l2cache.ReadExReq.mshrMissLatency::cpu.data      9482879                       # number of ReadExReq MSHR miss ticks (Tick)
system.l2cache.ReadExReq.mshrMissLatency::total      9482879                       # number of ReadExReq MSHR miss ticks (Tick)
system.l2cache.ReadExReq.mshrMissRate::cpu.data            1                       # mshr miss rate for ReadExReq accesses (Ratio)
system.l2cache.ReadExReq.mshrMissRate::total            1                       # mshr miss rate for ReadExReq accesses (Ratio)
system.l2cache.ReadExReq.avgMshrMissLatency::cpu.data 78370.900826                       # average ReadExReq mshr miss latency ((Tick/Count))
system.l2cache.ReadExReq.avgMshrMissLatency::total 78370.900826                       # average ReadExReq mshr miss latency ((Tick/Count))
system.l2cache.ReadSharedReq.misses::cpu.inst          409                       # number of ReadSharedReq misses (Count)
system.l2cache.ReadSharedReq.misses::total          409                       # number of ReadSharedReq misses (Count)
system.l2cache.ReadSharedReq.missLatency::cpu.inst     40101000                       # number of ReadSharedReq miss ticks (Tick)
system.l2cache.ReadSharedReq.missLatency::total     40101000                       # number of ReadSharedReq miss ticks (Tick)
system.l2cache.ReadSharedReq.accesses::cpu.inst          409                       # number of ReadSharedReq accesses(hits+misses) (Count)
system.l2cache.ReadSharedReq.accesses::total          409                       # number of ReadSharedReq accesses(hits+misses) (Count)
system.l2cache.ReadSharedReq.missRate::cpu.inst            1                       # miss rate for ReadSharedReq accesses (Ratio)
system.l2cache.ReadSharedReq.missRate::total            1                       # miss rate for ReadSharedReq accesses (Ratio)
system.l2cache.ReadSharedReq.avgMissLatency::cpu.inst 98046.454768                       # average ReadSharedReq miss latency ((Tick/Count))
system.l2cache.ReadSharedReq.avgMissLatency::total 98046.454768                       # average ReadSharedReq miss latency ((Tick/Count))
system.l2cache.ReadSharedReq.mshrMisses::cpu.inst          409                       # number of ReadSharedReq MSHR misses (Count)
system.l2cache.ReadSharedReq.mshrMisses::total          409                       # number of ReadSharedReq MSHR misses (Count)
system.l2cache.ReadSharedReq.mshrMissLatency::cpu.inst     31921000                       # number of ReadSharedReq MSHR miss ticks (Tick)
system.l2cache.ReadSharedReq.mshrMissLatency::total     31921000                       # number of ReadSharedReq MSHR miss ticks (Tick)
system.l2cache.ReadSharedReq.mshrMissRate::cpu.inst            1                       # mshr miss rate for ReadSharedReq accesses (Ratio)
system.l2cache.ReadSharedReq.mshrMissRate::total            1                       # mshr miss rate for ReadSharedReq accesses (Ratio)
system.l2cache.ReadSharedReq.avgMshrMissLatency::cpu.inst 78046.454768                       # average ReadSharedReq mshr miss latency ((Tick/Count))
system.l2cache.ReadSharedReq.avgMshrMissLatency::total 78046.454768                       # average ReadSharedReq mshr miss latency ((Tick/Count))
system.l2cache.UpgradeReq.misses::cpu.data           24                       # number of UpgradeReq misses (Count)
system.l2cache.UpgradeReq.misses::total            24                       # number of UpgradeReq misses (Count)
system.l2cache.UpgradeReq.accesses::cpu.data           24                       # number of UpgradeReq accesses(hits+misses) (Count)
system.l2cache.UpgradeReq.accesses::total           24                       # number of UpgradeReq accesses(hits+misses) (Count)
system.l2cache.UpgradeReq.missRate::cpu.data            1                       # miss rate for UpgradeReq accesses (Ratio)
system.l2cache.UpgradeReq.missRate::total            1                       # miss rate for UpgradeReq accesses (Ratio)
system.l2cache.UpgradeReq.mshrMisses::cpu.data           24                       # number of UpgradeReq MSHR misses (Count)
system.l2cache.UpgradeReq.mshrMisses::total           24                       # number of UpgradeReq MSHR misses (Count)
system.l2cache.UpgradeReq.mshrMissLatency::cpu.data       744000                       # number of UpgradeReq MSHR miss ticks (Tick)
system.l2cache.UpgradeReq.mshrMissLatency::total       744000                       # number of UpgradeReq MSHR miss ticks (Tick)
system.l2cache.UpgradeReq.mshrMissRate::cpu.data            1                       # mshr miss rate for UpgradeReq accesses (Ratio)
system.l2cache.UpgradeReq.mshrMissRate::total            1                       # mshr miss rate for UpgradeReq accesses (Ratio)
system.l2cache.UpgradeReq.avgMshrMissLatency::cpu.data        31000                       # average UpgradeReq mshr miss latency ((Tick/Count))
system.l2cache.UpgradeReq.avgMshrMissLatency::total        31000                       # average UpgradeReq mshr miss latency ((Tick/Count))
system.l2cache.WritebackClean.hits::writebacks         4016                       # number of WritebackClean hits (Count)
system.l2cache.WritebackClean.hits::total         4016                       # number of WritebackClean hits (Count)
system.l2cache.WritebackClean.accesses::writebacks         4016                       # number of WritebackClean accesses(hits+misses) (Count)
system.l2cache.WritebackClean.accesses::total         4016                       # number of WritebackClean accesses(hits+misses) (Count)
system.l2cache.WritebackDirty.hits::writebacks            2                       # number of WritebackDirty hits (Count)
system.l2cache.WritebackDirty.hits::total            2                       # number of WritebackDirty hits (Count)
system.l2cache.WritebackDirty.accesses::writebacks            2                       # number of WritebackDirty accesses(hits+misses) (Count)
system.l2cache.WritebackDirty.accesses::total            2                       # number of WritebackDirty accesses(hits+misses) (Count)
system.l2cache.power_state.pwrStateResidencyTicks::UNDEFINED    887569000                       # Cumulative time (in ticks) in various power states (Tick)
system.l2cache.tags.tagsInUse               43.255729                       # Average ticks per tags in use ((Tick/Count))
system.l2cache.tags.totalRefs                    7987                       # Total number of references to valid blocks. (Count)
system.l2cache.tags.sampledRefs                  4018                       # Sample count of references to valid blocks. (Count)
system.l2cache.tags.avgRefs                  1.987805                       # Average number of references to valid blocks. ((Count/Count))
system.l2cache.tags.warmupTick               94083001                       # The tick when the warmup percentage was hit. (Tick)
system.l2cache.tags.occupancies::writebacks    43.255729                       # Average occupied blocks per tick, per requestor ((Count/Tick))
system.l2cache.tags.avgOccs::writebacks      0.010560                       # Average percentage of cache occupancy ((Ratio/Tick))
system.l2cache.tags.avgOccs::total           0.010560                       # Average percentage of cache occupancy ((Ratio/Tick))
system.l2cache.tags.occupanciesTaskId::1024           49                       # Occupied blocks per task id (Count)
system.l2cache.tags.ageTaskId_1024::0              21                       # Occupied blocks per task id, per block age (Count)
system.l2cache.tags.ageTaskId_1024::1              26                       # Occupied blocks per task id, per block age (Count)
system.l2cache.tags.ageTaskId_1024::2               2                       # Occupied blocks per task id, per block age (Count)
system.l2cache.tags.ratioOccsTaskId::1024     0.011963                       # Ratio of occupied blocks and all blocks, per task id (Ratio)
system.l2cache.tags.tagAccesses                 75258                       # Number of tag accesses (Count)
system.l2cache.tags.dataAccesses                75258                       # Number of data accesses (Count)
system.l2cache.tags.power_state.pwrStateResidencyTicks::UNDEFINED    887569000                       # Cumulative time (in ticks) in various power states (Tick)
system.mem_ctrl.avgPriority_cpu.inst::samples       409.00                       # Average QoS priority value for accepted requests (Count)
system.mem_ctrl.avgPriority_cpu.data::samples       314.00                       # Average QoS priority value for accepted requests (Count)
system.mem_ctrl.priorityMinLatency       0.000000018750                       # per QoS priority minimum request to response latency (Second)
system.mem_ctrl.priorityMaxLatency       0.000000550500                       # per QoS priority maximum request to response latency (Second)
system.mem_ctrl.numReadWriteTurnArounds             0                       # Number of turnarounds from READ to WRITE (Count)
system.mem_ctrl.numWriteReadTurnArounds             0                       # Number of turnarounds from WRITE to READ (Count)
system.mem_ctrl.numStayReadState                 1672                       # Number of times bus staying in READ state (Count)
system.mem_ctrl.numStayWriteState                   0                       # Number of times bus staying in WRITE state (Count)
system.mem_ctrl.readReqs                          723                       # Number of read requests accepted (Count)
system.mem_ctrl.writeReqs                           0                       # Number of write requests accepted (Count)
system.mem_ctrl.readBursts                        723                       # Number of controller read bursts, including those serviced by the write queue (Count)
system.mem_ctrl.writeBursts                         0                       # Number of controller write bursts, including those merged in the write queue (Count)
system.mem_ctrl.servicedByWrQ                       0                       # Number of controller read bursts serviced by the write queue (Count)
system.mem_ctrl.mergedWrBursts                      0                       # Number of controller write bursts merged with an existing one (Count)
system.mem_ctrl.neitherReadNorWriteReqs             0                       # Number of requests that are neither read nor write (Count)
system.mem_ctrl.avgRdQLen                        1.00                       # Average read queue length when enqueuing ((Count/Tick))
system.mem_ctrl.avgWrQLen                        0.00                       # Average write queue length when enqueuing ((Count/Tick))
system.mem_ctrl.numRdRetry                          0                       # Number of times read queue was full causing retry (Count)
system.mem_ctrl.numWrRetry                          0                       # Number of times write queue was full causing retry (Count)
system.mem_ctrl.readPktSize::0                      0                       # Read request sizes (log2) (Count)
system.mem_ctrl.readPktSize::1                      0                       # Read request sizes (log2) (Count)
system.mem_ctrl.readPktSize::2                      0                       # Read request sizes (log2) (Count)
system.mem_ctrl.readPktSize::3                      0                       # Read request sizes (log2) (Count)
system.mem_ctrl.readPktSize::4                      0                       # Read request sizes (log2) (Count)
system.mem_ctrl.readPktSize::5                      0                       # Read request sizes (log2) (Count)
system.mem_ctrl.readPktSize::6                    723                       # Read request sizes (log2) (Count)
system.mem_ctrl.writePktSize::0                     0                       # Write request sizes (log2) (Count)
system.mem_ctrl.writePktSize::1                     0                       # Write request sizes (log2) (Count)
system.mem_ctrl.writePktSize::2                     0                       # Write request sizes (log2) (Count)
system.mem_ctrl.writePktSize::3                     0                       # Write request sizes (log2) (Count)
system.mem_ctrl.writePktSize::4                     0                       # Write request sizes (log2) (Count)
system.mem_ctrl.writePktSize::5                     0                       # Write request sizes (log2) (Count)
system.mem_ctrl.writePktSize::6                     0                       # Write request sizes (log2) (Count)
system.mem_ctrl.rdQLenPdf::0                      723                       # What read queue length does an incoming req see (Count)
system.mem_ctrl.rdQLenPdf::1                        0                       # What read queue length does an incoming req see (Count)
system.mem_ctrl.rdQLenPdf::2                        0                       # What read queue length does an incoming req see (Count)
system.mem_ctrl.rdQLenPdf::3                        0                       # What read queue length does an incoming req see (Count)
system.mem_ctrl.rdQLenPdf::4                        0                       # What read queue length does an incoming req see (Count)
system.mem_ctrl.rdQLenPdf::5                        0                       # What read queue length does an incoming req see (Count)
system.mem_ctrl.rdQLenPdf::6                        0                       # What read queue length does an incoming req see (Count)
system.mem_ctrl.rdQLenPdf::7                        0                       # What read queue length does an incoming req see (Count)
system.mem_ctrl.rdQLenPdf::8                        0                       # What read queue length does an incoming req see (Count)
system.mem_ctrl.rdQLenPdf::9                        0                       # What read queue length does an incoming req see (Count)
system.mem_ctrl.rdQLenPdf::10                       0                       # What read queue length does an incoming req see (Count)
system.mem_ctrl.rdQLenPdf::11                       0                       # What read queue length does an incoming req see (Count)
system.mem_ctrl.rdQLenPdf::12                       0                       # What read queue length does an incoming req see (Count)
system.mem_ctrl.rdQLenPdf::13                       0                       # What read queue length does an incoming req see (Count)
system.mem_ctrl.rdQLenPdf::14                       0                       # What read queue length does an incoming req see (Count)
system.mem_ctrl.rdQLenPdf::15                       0                       # What read queue length does an incoming req see (Count)
system.mem_ctrl.rdQLenPdf::16                       0                       # What read queue length does an incoming req see (Count)
system.mem_ctrl.rdQLenPdf::17                       0                       # What read queue length does an incoming req see (Count)
system.mem_ctrl.rdQLenPdf::18                       0                       # What read queue length does an incoming req see (Count)
system.mem_ctrl.rdQLenPdf::19                       0                       # What read queue length does an incoming req see (Count)
system.mem_ctrl.rdQLenPdf::20                       0                       # What read queue length does an incoming req see (Count)
system.mem_ctrl.rdQLenPdf::21                       0                       # What read queue length does an incoming req see (Count)
system.mem_ctrl.rdQLenPdf::22                       0                       # What read queue length does an incoming req see (Count)
system.mem_ctrl.rdQLenPdf::23                       0                       # What read queue length does an incoming req see (Count)
system.mem_ctrl.rdQLenPdf::24                       0                       # What read queue length does an incoming req see (Count)
system.mem_ctrl.rdQLenPdf::25                       0                       # What read queue length does an incoming req see (Count)
system.mem_ctrl.rdQLenPdf::26                       0                       # What read queue length does an incoming req see (Count)
system.mem_ctrl.rdQLenPdf::27                       0                       # What read queue length does an incoming req see (Count)
system.mem_ctrl.rdQLenPdf::28                       0                       # What read queue length does an incoming req see (Count)
system.mem_ctrl.rdQLenPdf::29                       0                       # What read queue length does an incoming req see (Count)
system.mem_ctrl.rdQLenPdf::30                       0                       # What read queue length does an incoming req see (Count)
system.mem_ctrl.rdQLenPdf::31                       0                       # What read queue length does an incoming req see (Count)
system.mem_ctrl.wrQLenPdf::0                        0                       # What write queue length does an incoming req see (Count)
system.mem_ctrl.wrQLenPdf::1                        0                       # What write queue length does an incoming req see (Count)
system.mem_ctrl.wrQLenPdf::2                        0                       # What write queue length does an incoming req see (Count)
system.mem_ctrl.wrQLenPdf::3                        0                       # What write queue length does an incoming req see (Count)
system.mem_ctrl.wrQLenPdf::4                        0                       # What write queue length does an incoming req see (Count)
system.mem_ctrl.wrQLenPdf::5                        0                       # What write queue length does an incoming req see (Count)
system.mem_ctrl.wrQLenPdf::6                        0                       # What write queue length does an incoming req see (Count)
system.mem_ctrl.wrQLenPdf::7                        0                       # What write queue length does an incoming req see (Count)
system.mem_ctrl.wrQLenPdf::8                        0                       # What write queue length does an incoming req see (Count)
system.mem_ctrl.wrQLenPdf::9                        0                       # What write queue length does an incoming req see (Count)
system.mem_ctrl.wrQLenPdf::10                       0                       # What write queue length does an incoming req see (Count)
system.mem_ctrl.wrQLenPdf::11                       0                       # What write queue length does an incoming req see (Count)
system.mem_ctrl.wrQLenPdf::12                       0                       # What write queue length does an incoming req see (Count)
system.mem_ctrl.wrQLenPdf::13                       0                       # What write queue length does an incoming req see (Count)
system.mem_ctrl.wrQLenPdf::14                       0                       # What write queue length does an incoming req see (Count)
system.mem_ctrl.wrQLenPdf::15                       0                       # What write queue length does an incoming req see (Count)
system.mem_ctrl.wrQLenPdf::16                       0                       # What write queue length does an incoming req see (Count)
system.mem_ctrl.wrQLenPdf::17                       0                       # What write queue length does an incoming req see (Count)
system.mem_ctrl.wrQLenPdf::18                       0                       # What write queue length does an incoming req see (Count)
system.mem_ctrl.wrQLenPdf::19                       0                       # What write queue length does an incoming req see (Count)
system.mem_ctrl.wrQLenPdf::20                       0                       # What write queue length does an incoming req see (Count)
system.mem_ctrl.wrQLenPdf::21                       0                       # What write queue length does an incoming req see (Count)
system.mem_ctrl.wrQLenPdf::22                       0                       # What write queue length does an incoming req see (Count)
system.mem_ctrl.wrQLenPdf::23                       0                       # What write queue length does an incoming req see (Count)
system.mem_ctrl.wrQLenPdf::24                       0                       # What write queue length does an incoming req see (Count)
system.mem_ctrl.wrQLenPdf::25                       0                       # What write queue length does an incoming req see (Count)
system.mem_ctrl.wrQLenPdf::26                       0                       # What write queue length does an incoming req see (Count)
system.mem_ctrl.wrQLenPdf::27                       0                       # What write queue length does an incoming req see (Count)
system.mem_ctrl.wrQLenPdf::28                       0                       # What write queue length does an incoming req see (Count)
system.mem_ctrl.wrQLenPdf::29                       0                       # What write queue length does an incoming req see (Count)
system.mem_ctrl.wrQLenPdf::30                       0                       # What write queue length does an incoming req see (Count)
system.mem_ctrl.wrQLenPdf::31                       0                       # What write queue length does an incoming req see (Count)
system.mem_ctrl.wrQLenPdf::32                       0                       # What write queue length does an incoming req see (Count)
system.mem_ctrl.wrQLenPdf::33                       0                       # What write queue length does an incoming req see (Count)
system.mem_ctrl.wrQLenPdf::34                       0                       # What write queue length does an incoming req see (Count)
system.mem_ctrl.wrQLenPdf::35                       0                       # What write queue length does an incoming req see (Count)
system.mem_ctrl.wrQLenPdf::36                       0                       # What write queue length does an incoming req see (Count)
system.mem_ctrl.wrQLenPdf::37                       0                       # What write queue length does an incoming req see (Count)
system.mem_ctrl.wrQLenPdf::38                       0                       # What write queue length does an incoming req see (Count)
system.mem_ctrl.wrQLenPdf::39                       0                       # What write queue length does an incoming req see (Count)
system.mem_ctrl.wrQLenPdf::40                       0                       # What write queue length does an incoming req see (Count)
system.mem_ctrl.wrQLenPdf::41                       0                       # What write queue length does an incoming req see (Count)
[...]
system.victimbus.transDist::ReadExResp            121                       # Transaction distribution (Count)
system.victimbus.transDist::ReadSharedReq        78448                       # Transaction distribution (Count)
system.victimbus.pktCount_system.cpu.dcache.mem_side_port::system.victimcache.cpu_side_port       235506                       # Packet count per connected requestor and responder (Count)
system.victimbus.pktSize_system.cpu.dcache.mem_side_port::system.victimcache.cpu_side_port     10040896                       # Cumulative packet size per connected requestor and responder (Byte)
system.victimbus.snoops                          8301                       # Total snoops (Count)
system.victimbus.snoopTraffic                  531264                       # Total snoop traffic (Byte)
system.victimbus.snoopFanout::samples           86894                       # Request fanout histogram (Count)
system.victimbus.snoopFanout::mean           0.049290                       # Request fanout histogram (Count)
system.victimbus.snoopFanout::stdev          0.216474                       # Request fanout histogram (Count)
system.victimbus.snoopFanout::underflows            0      0.00%      0.00% # Request fanout histogram (Count)
system.victimbus.snoopFanout::0                 82611     95.07%     95.07% # Request fanout histogram (Count)
system.victimbus.snoopFanout::1                  4283      4.93%    100.00% # Request fanout histogram (Count)
system.victimbus.snoopFanout::overflows             0      0.00%    100.00% # Request fanout histogram (Count)
system.victimbus.snoopFanout::min_value             0                       # Request fanout histogram (Count)
system.victimbus.snoopFanout::max_value             1                       # Request fanout histogram (Count)
system.victimbus.snoopFanout::total             86894                       # Request fanout histogram (Count)
system.victimbus.power_state.pwrStateResidencyTicks::UNDEFINED    887569000                       # Cumulative time (in ticks) in various power states (Tick)
system.victimbus.reqLayer0.occupancy        235233000                       # Layer occupancy (ticks) (Tick)
system.victimbus.reqLayer0.utilization            0.3                       # Layer utilization (Ratio)
system.victimbus.respLayer0.occupancy       234669415                       # Layer occupancy (ticks) (Tick)
system.victimbus.respLayer0.utilization           0.3                       # Layer utilization (Ratio)
system.victimbus.snoop_filter.totRequests       156913                       # Total number of requests made to the snoop filter. (Count)
system.victimbus.snoop_filter.hitSingleRequests        78344                       # Number of requests hitting in the snoop filter with a single holder of the requested data. (Count)
system.victimbus.snoop_filter.hitMultiRequests            0                       # Number of requests hitting in the snoop filter with multiple (>1) holders of the requested data. (Count)
system.victimbus.snoop_filter.totSnoops          4283                       # Total number of snoops made to the snoop filter. (Count)
system.victimbus.snoop_filter.hitSingleSnoops         4283                       # Number of snoops hitting in the snoop filter with a single holder of the requested data. (Count)
system.victimbus.snoop_filter.hitMultiSnoops            0                       # Number of snoops hitting in the snoop filter with multiple (>1) holders of the requested data. (Count)
system.victimcache.demandHits::cpu.data         74286                       # number of demand (read+write) hits (Count)
system.victimcache.demandHits::total            74286                       # number of demand (read+write) hits (Count)
system.victimcache.overallHits::cpu.data        74286                       # number of overall hits (Count)
system.victimcache.overallHits::total           74286                       # number of overall hits (Count)
system.victimcache.demandMisses::cpu.data         4283                       # number of demand (read+write) misses (Count)
system.victimcache.demandMisses::total           4283                       # number of demand (read+write) misses (Count)
system.victimcache.overallMisses::cpu.data         4283                       # number of overall misses (Count)
system.victimcache.overallMisses::total          4283                       # number of overall misses (Count)
system.victimcache.demandMissLatency::cpu.data    128988000                       # number of demand (read+write) miss ticks (Tick)
system.victimcache.demandMissLatency::total    128988000                       # number of demand (read+write) miss ticks (Tick)
system.victimcache.overallMissLatency::cpu.data    128988000                       # number of overall miss ticks (Tick)
system.victimcache.overallMissLatency::total    128988000                       # number of overall miss ticks (Tick)
system.victimcache.demandAccesses::cpu.data        78569                       # number of demand (read+write) accesses (Count)
system.victimcache.demandAccesses::total        78569                       # number of demand (read+write) accesses (Count)
system.victimcache.overallAccesses::cpu.data        78569                       # number of overall (read+write) accesses (Count)
system.victimcache.overallAccesses::total        78569                       # number of overall (read+write) accesses (Count)
system.victimcache.demandMissRate::cpu.data     0.054513                       # miss rate for demand accesses (Ratio)
system.victimcache.demandMissRate::total     0.054513                       # miss rate for demand accesses (Ratio)
system.victimcache.overallMissRate::cpu.data     0.054513                       # miss rate for overall accesses (Ratio)
system.victimcache.overallMissRate::total     0.054513                       # miss rate for overall accesses (Ratio)
system.victimcache.demandAvgMissLatency::cpu.data 30116.273640                       # average overall miss latency ((Cycle/Count))
system.victimcache.demandAvgMissLatency::total 30116.273640                       # average overall miss latency ((Cycle/Count))
system.victimcache.overallAvgMissLatency::cpu.data 30116.273640                       # average overall miss latency ((Cycle/Count))
system.victimcache.overallAvgMissLatency::total 30116.273640                       # average overall miss latency ((Cycle/Count))
system.victimcache.blockedCycles::no_mshrs            0                       # number of cycles access was blocked (Cycle)
system.victimcache.blockedCycles::no_targets            0                       # number of cycles access was blocked (Cycle)
system.victimcache.blockedCauses::no_mshrs            0                       # number of times access was blocked (Count)
system.victimcache.blockedCauses::no_targets            0                       # number of times access was blocked (Count)
system.victimcache.avgBlocked::no_mshrs           nan                       # average number of cycles each access was blocked ((Cycle/Count))
system.victimcache.avgBlocked::no_targets          nan                       # average number of cycles each access was blocked ((Cycle/Count))
system.victimcache.writebacks::writebacks         8301                       # number of writebacks (Count)
system.victimcache.writebacks::total             8301                       # number of writebacks (Count)
system.victimcache.demandMshrMisses::cpu.data         4283                       # number of demand (read+write) MSHR misses (Count)
system.victimcache.demandMshrMisses::total         4283                       # number of demand (read+write) MSHR misses (Count)
system.victimcache.overallMshrMisses::cpu.data         4283                       # number of overall MSHR misses (Count)
system.victimcache.overallMshrMisses::total         4283                       # number of overall MSHR misses (Count)
system.victimcache.demandMshrMissLatency::cpu.data    128988000                       # number of demand (read+write) MSHR miss ticks (Tick)
system.victimcache.demandMshrMissLatency::total    128988000                       # number of demand (read+write) MSHR miss ticks (Tick)
system.victimcache.overallMshrMissLatency::cpu.data    128988000                       # number of overall MSHR miss ticks (Tick)
system.victimcache.overallMshrMissLatency::total    128988000                       # number of overall MSHR miss ticks (Tick)
system.victimcache.demandMshrMissRate::cpu.data     0.054513                       # mshr miss ratio for demand accesses (Ratio)
system.victimcache.demandMshrMissRate::total     0.054513                       # mshr miss ratio for demand accesses (Ratio)
system.victimcache.overallMshrMissRate::cpu.data     0.054513                       # mshr miss ratio for overall accesses (Ratio)
system.victimcache.overallMshrMissRate::total     0.054513                       # mshr miss ratio for overall accesses (Ratio)
system.victimcache.demandAvgMshrMissLatency::cpu.data 30116.273640                       # average overall mshr miss latency ((Cycle/Count))
system.victimcache.demandAvgMshrMissLatency::total 30116.273640                       # average overall mshr miss latency ((Cycle/Count))
system.victimcache.overallAvgMshrMissLatency::cpu.data 30116.273640                       # average overall mshr miss latency ((Cycle/Count))
system.victimcache.overallAvgMshrMissLatency::total 30116.273640                       # average overall mshr miss latency ((Cycle/Count))
system.victimcache.replacements                  4018                       # number of replacements (Count)
system.victimcache.ReadExReq.misses::cpu.data          121                       # number of ReadExReq misses (Count)
system.victimcache.ReadExReq.misses::total          121                       # number of ReadExReq misses (Count)
system.victimcache.ReadExReq.missLatency::cpu.data     12024000                       # number of ReadExReq miss ticks (Tick)
system.victimcache.ReadExReq.missLatency::total     12024000                       # number of ReadExReq miss ticks (Tick)
system.victimcache.ReadExReq.accesses::cpu.data          121                       # number of ReadExReq accesses(hits+misses) (Count)
system.victimcache.ReadExReq.accesses::total          121                       # number of ReadExReq accesses(hits+misses) (Count)
system.victimcache.ReadExReq.missRate::cpu.data            1                       # miss rate for ReadExReq accesses (Ratio)
system.victimcache.ReadExReq.missRate::total            1                       # miss rate for ReadExReq accesses (Ratio)
system.victimcache.ReadExReq.avgMissLatency::cpu.data 99371.900826                       # average ReadExReq miss latency ((Tick/Count))
system.victimcache.ReadExReq.avgMissLatency::total 99371.900826                       # average ReadExReq miss latency ((Tick/Count))
system.victimcache.ReadExReq.mshrMisses::cpu.data          121                       # number of ReadExReq MSHR misses (Count)
system.victimcache.ReadExReq.mshrMisses::total          121                       # number of ReadExReq MSHR misses (Count)
system.victimcache.ReadExReq.mshrMissLatency::cpu.data     12024000                       # number of ReadExReq MSHR miss ticks (Tick)
system.victimcache.ReadExReq.mshrMissLatency::total     12024000                       # number of ReadExReq MSHR miss ticks (Tick)
system.victimcache.ReadExReq.mshrMissRate::cpu.data            1                       # mshr miss rate for ReadExReq accesses (Ratio)
system.victimcache.ReadExReq.mshrMissRate::total            1                       # mshr miss rate for ReadExReq accesses (Ratio)
system.victimcache.ReadExReq.avgMshrMissLatency::cpu.data 99371.900826                       # average ReadExReq mshr miss latency ((Tick/Count))
system.victimcache.ReadExReq.avgMshrMissLatency::total 99371.900826                       # average ReadExReq mshr miss latency ((Tick/Count))
system.victimcache.ReadSharedReq.hits::cpu.data        74286                       # number of ReadSharedReq hits (Count)
system.victimcache.ReadSharedReq.hits::total        74286                       # number of ReadSharedReq hits (Count)
system.victimcache.ReadSharedReq.misses::cpu.data         4162                       # number of ReadSharedReq misses (Count)
system.victimcache.ReadSharedReq.misses::total         4162                       # number of ReadSharedReq misses (Count)
system.victimcache.ReadSharedReq.missLatency::cpu.data    116964000                       # number of ReadSharedReq miss ticks (Tick)
system.victimcache.ReadSharedReq.missLatency::total    116964000                       # number of ReadSharedReq miss ticks (Tick)
system.victimcache.ReadSharedReq.accesses::cpu.data        78448                       # number of ReadSharedReq accesses(hits+misses) (Count)
system.victimcache.ReadSharedReq.accesses::total        78448                       # number of ReadSharedReq accesses(hits+misses) (Count)
system.victimcache.ReadSharedReq.missRate::cpu.data     0.053054                       # miss rate for ReadSharedReq accesses (Ratio)
system.victimcache.ReadSharedReq.missRate::total     0.053054                       # miss rate for ReadSharedReq accesses (Ratio)
system.victimcache.ReadSharedReq.avgMissLatency::cpu.data 28102.835175                       # average ReadSharedReq miss latency ((Tick/Count))
system.victimcache.ReadSharedReq.avgMissLatency::total 28102.835175                       # average ReadSharedReq miss latency ((Tick/Count))
system.victimcache.ReadSharedReq.mshrMisses::cpu.data         4162                       # number of ReadSharedReq MSHR misses (Count)
system.victimcache.ReadSharedReq.mshrMisses::total         4162                       # number of ReadSharedReq MSHR misses (Count)
system.victimcache.ReadSharedReq.mshrMissLatency::cpu.data    116964000                       # number of ReadSharedReq MSHR miss ticks (Tick)
system.victimcache.ReadSharedReq.mshrMissLatency::total    116964000                       # number of ReadSharedReq MSHR miss ticks (Tick)
system.victimcache.ReadSharedReq.mshrMissRate::cpu.data     0.053054                       # mshr miss rate for ReadSharedReq accesses (Ratio)
system.victimcache.ReadSharedReq.mshrMissRate::total     0.053054                       # mshr miss rate for ReadSharedReq accesses (Ratio)
system.victimcache.ReadSharedReq.avgMshrMissLatency::cpu.data 28102.835175                       # average ReadSharedReq mshr miss latency ((Tick/Count))
system.victimcache.ReadSharedReq.avgMshrMissLatency::total 28102.835175                       # average ReadSharedReq mshr miss latency ((Tick/Count))
system.victimcache.UpgradeReq.misses::cpu.data           24                       # number of UpgradeReq misses (Count)
system.victimcache.UpgradeReq.misses::total           24                       # number of UpgradeReq misses (Count)
system.victimcache.UpgradeReq.accesses::cpu.data           24                       # number of UpgradeReq accesses(hits+misses) (Count)
system.victimcache.UpgradeReq.accesses::total           24                       # number of UpgradeReq accesses(hits+misses) (Count)
system.victimcache.UpgradeReq.missRate::cpu.data            1                       # miss rate for UpgradeReq accesses (Ratio)
system.victimcache.UpgradeReq.missRate::total            1                       # miss rate for UpgradeReq accesses (Ratio)
system.victimcache.UpgradeReq.mshrMisses::cpu.data           24                       # number of UpgradeReq MSHR misses (Count)
system.victimcache.UpgradeReq.mshrMisses::total           24                       # number of UpgradeReq MSHR misses (Count)
system.victimcache.UpgradeReq.mshrMissLatency::cpu.data      1272000                       # number of UpgradeReq MSHR miss ticks (Tick)
system.victimcache.UpgradeReq.mshrMissLatency::total      1272000                       # number of UpgradeReq MSHR miss ticks (Tick)
system.victimcache.UpgradeReq.mshrMissRate::cpu.data            1                       # mshr miss rate for UpgradeReq accesses (Ratio)
system.victimcache.UpgradeReq.mshrMissRate::total            1                       # mshr miss rate for UpgradeReq accesses (Ratio)
system.victimcache.UpgradeReq.avgMshrMissLatency::cpu.data        53000                       # average UpgradeReq mshr miss latency ((Tick/Count))
system.victimcache.UpgradeReq.avgMshrMissLatency::total        53000                       # average UpgradeReq mshr miss latency ((Tick/Count))
system.victimcache.WritebackClean.hits::writebacks        78318                       # number of WritebackClean hits (Count)
system.victimcache.WritebackClean.hits::total        78318                       # number of WritebackClean hits (Count)
system.victimcache.WritebackClean.accesses::writebacks        78318                       # number of WritebackClean accesses(hits+misses) (Count)
system.victimcache.WritebackClean.accesses::total        78318                       # number of WritebackClean accesses(hits+misses) (Count)
system.victimcache.WritebackDirty.hits::writebacks            2                       # number of WritebackDirty hits (Count)
system.victimcache.WritebackDirty.hits::total            2                       # number of WritebackDirty hits (Count)
system.victimcache.WritebackDirty.accesses::writebacks            2                       # number of WritebackDirty accesses(hits+misses) (Count)
system.victimcache.WritebackDirty.accesses::total            2                       # number of WritebackDirty accesses(hits+misses) (Count)
system.victimcache.power_state.pwrStateResidencyTicks::UNDEFINED    887569000                       # Cumulative time (in ticks) in various power states (Tick)
system.victimcache.tags.tagsInUse           14.108805                       # Average ticks per tags in use ((Tick/Count))
system.victimcache.tags.totalRefs              152606                       # Total number of references to valid blocks. (Count)
system.victimcache.tags.sampledRefs             78320                       # Sample count of references to valid blocks. (Count)
system.victimcache.tags.avgRefs              1.948493                       # Average number of references to valid blocks. ((Count/Count))
system.victimcache.tags.warmupTick           89246000                       # The tick when the warmup percentage was hit. (Tick)
system.victimcache.tags.occupancies::writebacks    14.108805                       # Average occupied blocks per tick, per requestor ((Count/Tick))
system.victimcache.tags.avgOccs::writebacks     0.881800                       # Average percentage of cache occupancy ((Ratio/Tick))
system.victimcache.tags.avgOccs::total       0.881800                       # Average percentage of cache occupancy ((Ratio/Tick))
system.victimcache.tags.occupanciesTaskId::1024           16                       # Occupied blocks per task id (Count)
system.victimcache.tags.ageTaskId_1024::0           16                       # Occupied blocks per task id, per block age (Count)
system.victimcache.tags.ratioOccsTaskId::1024            1                       # Ratio of occupied blocks and all blocks, per task id (Ratio)
system.victimcache.tags.tagAccesses           2588928                       # Number of tag accesses (Count)
system.victimcache.tags.dataAccesses          2588928                       # Number of data accesses (Count)
system.victimcache.tags.power_state.pwrStateResidencyTicks::UNDEFINED    887569000                       # Cumulative time (in ticks) in various power states (Tick)
system.workload.inst.arm                            0                       # number of arm instructions executed (Count)
system.workload.inst.quiesce                        0                       # number of quiesce instructions executed (Count)

---------- End Simulation Statistics   ----------
