
---------- Begin Simulation Statistics ----------
simSeconds                                   0.000178                       # Number of seconds simulated (Second)
simTicks                                    177797000                       # Number of ticks simulated (Tick)
finalTick                                   177797000                       # Number of ticks from beginning of simulation (restored from checkpoints and never reset) (Tick)
simFreq                                  1000000000000                       # The number of ticks per simulated second ((Tick/Second))
hostSeconds                                      0.57                       # Real time elapsed on the host (Second)
hostTickRate                                314567406                       # The number of ticks simulated per host second (ticks/s) ((Tick/Second))
hostMemory                                     647016                       # Number of bytes of host memory used (Byte)
simInsts                                        94409                       # Number of instructions simulated (Count)
simOps                                         147357                       # Number of ops (including micro ops) simulated (Count)
hostInstRate                                   166993                       # Simulator instruction rate (inst/s) ((Count/Second))
hostOpRate                                     260645                       # Simulator op (including micro ops) rate (op/s) ((Count/Second))
system.clk_domain.clock                          1000                       # Clock period in ticks (Tick)
system.clk_domain.voltage_domain.voltage            1                       # Voltage in Volts (Volt)
system.cpu.numCycles                           177798                       # Number of cpu cycles simulated (Cycle)
system.cpu.numWorkItemsStarted                      0                       # Number of work items this cpu started (Count)
system.cpu.numWorkItemsCompleted                    0                       # Number of work items this cpu completed (Count)
system.cpu.instsAdded                          159810                       # Number of instructions added to the IQ (excludes non-spec) (Count)
system.cpu.nonSpecInstsAdded                        1                       # Number of non-speculative instructions added to the IQ (Count)
system.cpu.instsIssued                         156883                       # Number of instructions issued (Count)
system.cpu.squashedInstsIssued                     41                       # Number of squashed instructions issued (Count)
system.cpu.squashedInstsExamined                12440                       # Number of squashed instructions iterated over during squash; mainly for profiling (Count)
system.cpu.squashedOperandsExamined             14306                       # Number of squashed operands that are examined and possibly removed from graph (Count)
system.cpu.squashedNonSpecRemoved                   1                       # Number of squashed non-spec instructions that were removed (Count)
system.cpu.numIssuedDist::samples              155792                       # Number of insts issued each cycle (Count)
system.cpu.numIssuedDist::mean               1.007003                       # Number of insts issued each cycle (Count)
system.cpu.numIssuedDist::stdev              1.373330                       # Number of insts issued each cycle (Count)
system.cpu.numIssuedDist::underflows                0      0.00%      0.00% # Number of insts issued each cycle (Count)
system.cpu.numIssuedDist::0                     80441     51.63%     51.63% # Number of insts issued each cycle (Count)
system.cpu.numIssuedDist::1                     31612     20.29%     71.92% # Number of insts issued each cycle (Count)
system.cpu.numIssuedDist::2                     21914     14.07%     85.99% # Number of insts issued each cycle (Count)
system.cpu.numIssuedDist::3                     13385      8.59%     94.58% # Number of insts issued each cycle (Count)
system.cpu.numIssuedDist::4                      4204      2.70%     97.28% # Number of insts issued each cycle (Count)
system.cpu.numIssuedDist::5                      2018      1.30%     98.58% # Number of insts issued each cycle (Count)
system.cpu.numIssuedDist::6                      1420      0.91%     99.49% # Number of insts issued each cycle (Count)
system.cpu.numIssuedDist::7                       522      0.34%     99.82% # Number of insts issued each cycle (Count)
system.cpu.numIssuedDist::8                       276      0.18%    100.00% # Number of insts issued each cycle (Count)
system.cpu.numIssuedDist::overflows                 0      0.00%    100.00% # Number of insts issued each cycle (Count)
system.cpu.numIssuedDist::min_value                 0                       # Number of insts issued each cycle (Count)
system.cpu.numIssuedDist::max_value                 8                       # Number of insts issued each cycle (Count)
system.cpu.numIssuedDist::total                155792                       # Number of insts issued each cycle (Count)
system.cpu.statFuBusy::No_OpClass                   0      0.00%      0.00% # attempts to use FU when none available (Count)
system.cpu.statFuBusy::IntAlu                     247     77.43%     77.43% # attempts to use FU when none available (Count)
system.cpu.statFuBusy::IntMult                      0      0.00%     77.43% # attempts to use FU when none available (Count)
system.cpu.statFuBusy::IntDiv                       0      0.00%     77.43% # attempts to use FU when none available (Count)
system.cpu.statFuBusy::FloatAdd                     0      0.00%     77.43% # attempts to use FU when none available (Count)
system.cpu.statFuBusy::FloatCmp                     0      0.00%     77.43% # attempts to use FU when none available (Count)
system.cpu.statFuBusy::FloatCvt                     0      0.00%     77.43% # attempts to use FU when none available (Count)
system.cpu.statFuBusy::FloatMult                    0      0.00%     77.43% # attempts to use FU when none available (Count)
system.cpu.statFuBusy::FloatMultAcc                 0      0.00%     77.43% # attempts to use FU when none available (Count)
system.cpu.statFuBusy::FloatDiv                     0      0.00%     77.43% # attempts to use FU when none available (Count)
system.cpu.statFuBusy::FloatMisc                    0      0.00%     77.43% # attempts to use FU when none available (Count)
system.cpu.statFuBusy::FloatSqrt                    0      0.00%     77.43% # attempts to use FU when none available (Count)
system.cpu.statFuBusy::SimdAdd                      0      0.00%     77.43% # attempts to use FU when none available (Count)
system.cpu.statFuBusy::SimdAddAcc                   0      0.00%     77.43% # attempts to use FU when none available (Count)
system.cpu.statFuBusy::SimdAlu                     11      3.45%     80.88% # attempts to use FU when none available (Count)
system.cpu.statFuBusy::SimdCmp                      0      0.00%     80.88% # attempts to use FU when none available (Count)
system.cpu.statFuBusy::SimdCvt                      1      0.31%     81.19% # attempts to use FU when none available (Count)
system.cpu.statFuBusy::SimdMisc                     2      0.63%     81.82% # attempts to use FU when none available (Count)
system.cpu.statFuBusy::SimdMult                     0      0.00%     81.82% # attempts to use FU when none available (Count)
system.cpu.statFuBusy::SimdMultAcc                  0      0.00%     81.82% # attempts to use FU when none available (Count)
system.cpu.statFuBusy::SimdShift                    0      0.00%     81.82% # attempts to use FU when none available (Count)
system.cpu.statFuBusy::SimdShiftAcc                 0      0.00%     81.82% # attempts to use FU when none available (Count)
system.cpu.statFuBusy::SimdDiv                      0      0.00%     81.82% # attempts to use FU when none available (Count)
system.cpu.statFuBusy::SimdSqrt                     0      0.00%     81.82% # attempts to use FU when none available (Count)
system.cpu.statFuBusy::SimdFloatAdd                 0      0.00%     81.82% # attempts to use FU when none available (Count)
system.cpu.statFuBusy::SimdFloatAlu                 0      0.00%     81.82% # attempts to use FU when none available (Count)
system.cpu.statFuBusy::SimdFloatCmp                 0      0.00%     81.82% # attempts to use FU when none available (Count)
system.cpu.statFuBusy::SimdFloatCvt                 0      0.00%     81.82% # attempts to use FU when none available (Count)
system.cpu.statFuBusy::SimdFloatDiv                 0      0.00%     81.82% # attempts to use FU when none available (Count)
system.cpu.statFuBusy::SimdFloatMisc                0      0.00%     81.82% # attempts to use FU when none available (Count)
system.cpu.statFuBusy::SimdFloatMult                0      0.00%     81.82% # attempts to use FU when none available (Count)
system.cpu.statFuBusy::SimdFloatMultAcc             0      0.00%     81.82% # attempts to use FU when none available (Count)
system.cpu.statFuBusy::SimdFloatSqrt                0      0.00%     81.82% # attempts to use FU when none available (Count)
system.cpu.statFuBusy::SimdReduceAdd                0      0.00%     81.82% # attempts to use FU when none available (Count)
system.cpu.statFuBusy::SimdReduceAlu                0      0.00%     81.82% # attempts to use FU when none available (Count)
system.cpu.statFuBusy::SimdReduceCmp                0      0.00%     81.82% # attempts to use FU when none available (Count)
system.cpu.statFuBusy::SimdFloatReduceAdd            0      0.00%     81.82% # attempts to use FU when none available (Count)
system.cpu.statFuBusy::SimdFloatReduceCmp            0      0.00%     81.82% # attempts to use FU when none available (Count)
system.cpu.statFuBusy::SimdAes                      0      0.00%     81.82% # attempts to use FU when none available (Count)
system.cpu.statFuBusy::SimdAesMix                   0      0.00%     81.82% # attempts to use FU when none available (Count)
system.cpu.statFuBusy::SimdSha1Hash                 0      0.00%     81.82% # attempts to use FU when none available (Count)
system.cpu.statFuBusy::SimdSha1Hash2                0      0.00%     81.82% # attempts to use FU when none available (Count)
system.cpu.statFuBusy::SimdSha256Hash               0      0.00%     81.82% # attempts to use FU when none available (Count)
system.cpu.statFuBusy::SimdSha256Hash2              0      0.00%     81.82% # attempts to use FU when none available (Count)
system.cpu.statFuBusy::SimdShaSigma2                0      0.00%     81.82% # attempts to use FU when none available (Count)
system.cpu.statFuBusy::SimdShaSigma3                0      0.00%     81.82% # attempts to use FU when none available (Count)
system.cpu.statFuBusy::SimdPredAlu                  0      0.00%     81.82% # attempts to use FU when none available (Count)
system.cpu.statFuBusy::MemRead                     26      8.15%     89.97% # attempts to use FU when none available (Count)
system.cpu.statFuBusy::MemWrite                    19      5.96%     95.92% # attempts to use FU when none available (Count)
system.cpu.statFuBusy::FloatMemRead                 6      1.88%     97.81% # attempts to use FU when none available (Count)
system.cpu.statFuBusy::FloatMemWrite                7      2.19%    100.00% # attempts to use FU when none available (Count)
system.cpu.statFuBusy::IprAccess                    0      0.00%    100.00% # attempts to use FU when none available (Count)
system.cpu.statFuBusy::InstPrefetch                 0      0.00%    100.00% # attempts to use FU when none available (Count)
system.cpu.statIssuedInstType_0::No_OpClass          634      0.40%      0.40% # Number of instructions issued per FU type, per thread (Count)
system.cpu.statIssuedInstType_0::IntAlu        142339     90.73%     91.13% # Number of instructions issued per FU type, per thread (Count)
system.cpu.statIssuedInstType_0::IntMult            6      0.00%     91.14% # Number of instructions issued per FU type, per thread (Count)
system.cpu.statIssuedInstType_0::IntDiv            29      0.02%     91.16% # Number of instructions issued per FU type, per thread (Count)
system.cpu.statIssuedInstType_0::FloatAdd          136      0.09%     91.24% # Number of instructions issued per FU type, per thread (Count)
system.cpu.statIssuedInstType_0::FloatCmp            0      0.00%     91.24% # Number of instructions issued per FU type, per thread (Count)
system.cpu.statIssuedInstType_0::FloatCvt            0      0.00%     91.24% # Number of instructions issued per FU type, per thread (Count)
system.cpu.statIssuedInstType_0::FloatMult            0      0.00%     91.24% # Number of instructions issued per FU type, per thread (Count)
system.cpu.statIssuedInstType_0::FloatMultAcc            0      0.00%     91.24% # Number of instructions issued per FU type, per thread (Count)
system.cpu.statIssuedInstType_0::FloatDiv            0      0.00%     91.24% # Number of instructions issued per FU type, per thread (Count)
system.cpu.statIssuedInstType_0::FloatMisc            0      0.00%     91.24% # Number of instructions issued per FU type, per thread (Count)
system.cpu.statIssuedInstType_0::FloatSqrt            0      0.00%     91.24% # Number of instructions issued per FU type, per thread (Count)
system.cpu.statIssuedInstType_0::SimdAdd            0      0.00%     91.24% # Number of instructions issued per FU type, per thread (Count)
system.cpu.statIssuedInstType_0::SimdAddAcc            0      0.00%     91.24% # Number of instructions issued per FU type, per thread (Count)
system.cpu.statIssuedInstType_0::SimdAlu          156      0.10%     91.34% # Number of instructions issued per FU type, per thread (Count)
system.cpu.statIssuedInstType_0::SimdCmp            0      0.00%     91.34% # Number of instructions issued per FU type, per thread (Count)
system.cpu.statIssuedInstType_0::SimdCvt           48      0.03%     91.37% # Number of instructions issued per FU type, per thread (Count)
system.cpu.statIssuedInstType_0::SimdMisc          218      0.14%     91.51% # Number of instructions issued per FU type, per thread (Count)
system.cpu.statIssuedInstType_0::SimdMult            0      0.00%     91.51% # Number of instructions issued per FU type, per thread (Count)
system.cpu.statIssuedInstType_0::SimdMultAcc            0      0.00%     91.51% # Number of instructions issued per FU type, per thread (Count)
system.cpu.statIssuedInstType_0::SimdShift            0      0.00%     91.51% # Number of instructions issued per FU type, per thread (Count)
system.cpu.statIssuedInstType_0::SimdShiftAcc            0      0.00%     91.51% # Number of instructions issued per FU type, per thread (Count)
system.cpu.statIssuedInstType_0::SimdDiv            0      0.00%     91.51% # Number of instructions issued per FU type, per thread (Count)
system.cpu.statIssuedInstType_0::SimdSqrt            0      0.00%     91.51% # Number of instructions issued per FU type, per thread (Count)
system.cpu.statIssuedInstType_0::SimdFloatAdd            0      0.00%     91.51% # Number of instructions issued per FU type, per thread (Count)
system.cpu.statIssuedInstType_0::SimdFloatAlu            0      0.00%     91.51% # Number of instructions issued per FU type, per thread (Count)
system.cpu.statIssuedInstType_0::SimdFloatCmp            0      0.00%     91.51% # Number of instructions issued per FU type, per thread (Count)
system.cpu.statIssuedInstType_0::SimdFloatCvt            0      0.00%     91.51% # Number of instructions issued per FU type, per thread (Count)
system.cpu.statIssuedInstType_0::SimdFloatDiv            0      0.00%     91.51% # Number of instructions issued per FU type, per thread (Count)
system.cpu.statIssuedInstType_0::SimdFloatMisc            0      0.00%     91.51% # Number of instructions issued per FU type, per thread (Count)
system.cpu.statIssuedInstType_0::SimdFloatMult            0      0.00%     91.51% # Number of instructions issued per FU type, per thread (Count)
system.cpu.statIssuedInstType_0::SimdFloatMultAcc            0      0.00%     91.51% # Number of instructions issued per FU type, per thread (Count)
system.cpu.statIssuedInstType_0::SimdFloatSqrt            0      0.00%     91.51% # Number of instructions issued per FU type, per thread (Count)
system.cpu.statIssuedInstType_0::SimdReduceAdd            0      0.00%     91.51% # Number of instructions issued per FU type, per thread (Count)
system.cpu.statIssuedInstType_0::SimdReduceAlu            0      0.00%     91.51% # Number of instructions issued per FU type, per thread (Count)
system.cpu.statIssuedInstType_0::SimdReduceCmp            0      0.00%     91.51% # Number of instructions issued per FU type, per thread (Count)
system.cpu.statIssuedInstType_0::SimdFloatReduceAdd            0      0.00%     91.51% # Number of instructions issued per FU type, per thread (Count)
system.cpu.statIssuedInstType_0::SimdFloatReduceCmp            0      0.00%     91.51% # Number of instructions issued per FU type, per thread (Count)
system.cpu.statIssuedInstType_0::SimdAes            0      0.00%     91.51% # Number of instructions issued per FU type, per thread (Count)
system.cpu.statIssuedInstType_0::SimdAesMix            0      0.00%     91.51% # Number of instructions issued per FU type, per thread (Count)
system.cpu.statIssuedInstType_0::SimdSha1Hash            0      0.00%     91.51% # Number of instructions issued per FU type, per thread (Count)
system.cpu.statIssuedInstType_0::SimdSha1Hash2            0      0.00%     91.51% # Number of instructions issued per FU type, per thread (Count)
system.cpu.statIssuedInstType_0::SimdSha256Hash            0      0.00%     91.51% # Number of instructions issued per FU type, per thread (Count)
system.cpu.statIssuedInstType_0::SimdSha256Hash2            0      0.00%     91.51% # Number of instructions issued per FU type, per thread (Count)
system.cpu.statIssuedInstType_0::SimdShaSigma2            0      0.00%     91.51% # Number of instructions issued per FU type, per thread (Count)
system.cpu.statIssuedInstType_0::SimdShaSigma3            0      0.00%     91.51% # Number of instructions issued per FU type, per thread (Count)
system.cpu.statIssuedInstType_0::SimdPredAlu            0      0.00%     91.51% # Number of instructions issued per FU type, per thread (Count)
system.cpu.statIssuedInstType_0::MemRead         6879      4.38%     95.90% # Number of instructions issued per FU type, per thread (Count)
system.cpu.statIssuedInstType_0::MemWrite         5823      3.71%     99.61% # Number of instructions issued per FU type, per thread (Count)
system.cpu.statIssuedInstType_0::FloatMemRead           86      0.05%     99.66% # Number of instructions issued per FU type, per thread (Count)
system.cpu.statIssuedInstType_0::FloatMemWrite          529      0.34%    100.00% # Number of instructions issued per FU type, per thread (Count)
system.cpu.statIssuedInstType_0::IprAccess            0      0.00%    100.00% # Number of instructions issued per FU type, per thread (Count)
system.cpu.statIssuedInstType_0::InstPrefetch            0      0.00%    100.00% # Number of instructions issued per FU type, per thread (Count)
system.cpu.statIssuedInstType_0::total         156883                       # Number of instructions issued per FU type, per thread (Count)
system.cpu.issueRate                         0.882367                       # Inst issue rate ((Count/Cycle))
system.cpu.fuBusy                                 319                       # FU busy when requested (Count)
system.cpu.fuBusyRate                        0.002033                       # FU busy rate (busy events/executed inst) ((Count/Count))
system.cpu.intInstQueueReads                   467258                       # Number of integer instruction queue reads (Count)
system.cpu.intInstQueueWrites                  170733                       # Number of integer instruction queue writes (Count)
system.cpu.intInstQueueWakeupAccesses          153990                       # Number of integer instruction queue wakeup accesses (Count)
system.cpu.fpInstQueueReads                      2654                       # Number of floating instruction queue reads (Count)
system.cpu.fpInstQueueWrites                     1529                       # Number of floating instruction queue writes (Count)
system.cpu.fpInstQueueWakeupAccesses             1277                       # Number of floating instruction queue wakeup accesses (Count)
system.cpu.vecInstQueueReads                        0                       # Number of vector instruction queue reads (Count)
system.cpu.vecInstQueueWrites                       0                       # Number of vector instruction queue writes (Count)
system.cpu.vecInstQueueWakeupAccesses               0                       # Number of vector instruction queue wakeup accesses (Count)
system.cpu.intAluAccesses                      155228                       # Number of integer alu accesses (Count)
system.cpu.fpAluAccesses                         1340                       # Number of floating point alu accesses (Count)
system.cpu.vecAluAccesses                           0                       # Number of vector alu accesses (Count)
system.cpu.idleCycles                               0                       # Number of cycles IEW is idle (Cycle)
system.cpu.squashCycles                           605                       # Number of cycles IEW is squashing (Cycle)
system.cpu.blockCycles                          29798                       # Number of cycles IEW is blocking (Cycle)
system.cpu.unblockCycles                         1822                       # Number of cycles IEW is unblocking (Cycle)
system.cpu.dispatchedInsts                     159811                       # Number of instructions dispatched to IQ (Count)
system.cpu.dispSquashedInsts                      122                       # Number of squashed instructions skipped by dispatch (Count)
system.cpu.dispLoadInsts                         7199                       # Number of dispatched load instructions (Count)
system.cpu.dispStoreInsts                        6689                       # Number of dispatched store instructions (Count)
system.cpu.dispNonSpecInsts                         1                       # Number of dispatched non-speculative instructions (Count)
system.cpu.iqFullEvents                            47                       # Number of times the IQ has become full, causing a stall (Count)
system.cpu.lsqFullEvents                         1034                       # Number of times the LSQ has become full, causing a stall (Count)
system.cpu.memOrderViolationEvents                 12                       # Number of memory order violations (Count)
system.cpu.predictedTakenIncorrect                 54                       # Number of branches that were predicted taken incorrectly (Count)
system.cpu.predictedNotTakenIncorrect             642                       # Number of branches that were predicted not taken incorrectly (Count)
system.cpu.branchMispredicts                      696                       # Number of branch mispredicts detected at execute (Count)
system.cpu.numInsts                            155999                       # Number of executed instructions (Count)
system.cpu.numLoadInsts                          6801                       # Number of load instructions executed (Count)
system.cpu.numSquashedInsts                       878                       # Number of squashed instructions skipped in execute (Count)
system.cpu.numSwp                                   0                       # Number of swp insts executed (Count)
system.cpu.numNop                                   0                       # Number of nop insts executed (Count)
system.cpu.numRefs                              13070                       # Number of memory reference insts executed (Count)
system.cpu.numBranches                           6508                       # Number of branches executed (Count)
system.cpu.numStoreInsts                         6269                       # Number of stores executed (Count)
system.cpu.numRate                           0.877395                       # Inst execution rate ((Count/Cycle))
system.cpu.instsToCommit                       155664                       # Cumulative count of insts sent to commit (Count)
system.cpu.writebackCount                      155267                       # Cumulative count of insts written-back (Count)
system.cpu.producerInst                        128435                       # Number of instructions producing a value (Count)
system.cpu.consumerInst                        247247                       # Number of instructions consuming a value (Count)
system.cpu.wbRate                            0.873278                       # Insts written-back per cycle ((Count/Cycle))
system.cpu.wbFanout                          0.519460                       # Average fanout of values written-back ((Count/Count))
system.cpu.timesIdled                             301                       # Number of times that the entire CPU went into an idle state and unscheduled itself (Count)
system.cpu.idleCycles                           22006                       # Total number of cycles that the CPU has spent unscheduled due to idling (Cycle)
system.cpu.committedInsts                       94409                       # Number of Instructions Simulated (Count)
system.cpu.committedOps                        147357                       # Number of Ops (including micro ops) Simulated (Count)
system.cpu.cpi                               1.883274                       # CPI: Cycles Per Instruction ((Cycle/Count))
system.cpu.totalCpi                          1.883274                       # CPI: Total CPI of All Threads ((Cycle/Count))
system.cpu.ipc                               0.530990                       # IPC: Instructions Per Cycle ((Count/Cycle))
system.cpu.totalIpc                          0.530990                       # IPC: Total IPC of All Threads ((Count/Cycle))
system.cpu.intRegfileReads                     242437                       # Number of integer regfile reads (Count)
system.cpu.intRegfileWrites                    141523                       # Number of integer regfile writes (Count)
system.cpu.fpRegfileReads                        1527                       # Number of floating regfile reads (Count)
system.cpu.fpRegfileWrites                        714                       # Number of floating regfile writes (Count)
system.cpu.ccRegfileReads                       80607                       # number of cc regfile reads (Count)
system.cpu.ccRegfileWrites                     146489                       # number of cc regfile writes (Count)
system.cpu.miscRegfileReads                     27078                       # number of misc regfile reads (Count)
system.cpu.MemDepUnit__0.insertedLoads           7199                       # Number of loads inserted to the mem dependence unit. (Count)
system.cpu.MemDepUnit__0.insertedStores          6689                       # Number of stores inserted to the mem dependence unit. (Count)
system.cpu.MemDepUnit__0.conflictingLoads           24                       # Number of conflicting loads. (Count)
system.cpu.MemDepUnit__0.conflictingStores            4                       # Number of conflicting stores. (Count)
system.cpu.MemDepUnit__1.insertedLoads              0                       # Number of loads inserted to the mem dependence unit. (Count)
system.cpu.MemDepUnit__1.insertedStores             0                       # Number of stores inserted to the mem dependence unit. (Count)
system.cpu.MemDepUnit__1.conflictingLoads            0                       # Number of conflicting loads. (Count)
system.cpu.MemDepUnit__1.conflictingStores            0                       # Number of conflicting stores. (Count)
system.cpu.MemDepUnit__2.insertedLoads              0                       # Number of loads inserted to the mem dependence unit. (Count)
system.cpu.MemDepUnit__2.insertedStores             0                       # Number of stores inserted to the mem dependence unit. (Count)
system.cpu.MemDepUnit__2.conflictingLoads            0                       # Number of conflicting loads. (Count)
system.cpu.MemDepUnit__2.conflictingStores            0                       # Number of conflicting stores. (Count)
system.cpu.MemDepUnit__3.insertedLoads              0                       # Number of loads inserted to the mem dependence unit. (Count)
system.cpu.MemDepUnit__3.insertedStores             0                       # Number of stores inserted to the mem dependence unit. (Count)
system.cpu.MemDepUnit__3.conflictingLoads            0                       # Number of conflicting loads. (Count)
system.cpu.MemDepUnit__3.conflictingStores            0                       # Number of conflicting stores. (Count)
system.cpu.branchPred.lookups                    8129                       # Number of BP lookups (Count)
system.cpu.branchPred.condPredicted              6939                       # Number of conditional branches predicted (Count)
system.cpu.branchPred.condIncorrect               679                       # Number of conditional branches incorrect (Count)
system.cpu.branchPred.BTBLookups                 5957                       # Number of BTB lookups (Count)
system.cpu.branchPred.BTBHits                    5255                       # Number of BTB hits (Count)
system.cpu.branchPred.BTBHitRatio            0.882155                       # BTB Hit Ratio (Ratio)
system.cpu.branchPred.RASUsed                     272                       # Number of times the RAS was used to get a target. (Count)
system.cpu.branchPred.RASIncorrect                  0                       # Number of incorrect RAS predictions. (Count)
system.cpu.branchPred.indirectLookups             311                       # Number of indirect predictor lookups. (Count)
system.cpu.branchPred.indirectHits                 20                       # Number of indirect target hits. (Count)
system.cpu.branchPred.indirectMisses              291                       # Number of indirect misses. (Count)
system.cpu.branchPred.indirectMispredicted           89                       # Number of mispredicted indirect branches. (Count)
system.cpu.commit.commitSquashedInsts           12252                       # The number of squashed insts skipped by commit (Count)
system.cpu.commit.branchMispredicts               582                       # The number of times a branch was mispredicted (Count)
system.cpu.commit.numCommittedDist::samples       153810                       # Number of insts commited each cycle (Count)
system.cpu.commit.numCommittedDist::mean     0.958046                       # Number of insts commited each cycle (Count)
system.cpu.commit.numCommittedDist::stdev     1.689431                       # Number of insts commited each cycle (Count)
system.cpu.commit.numCommittedDist::underflows            0      0.00%      0.00% # Number of insts commited each cycle (Count)
system.cpu.commit.numCommittedDist::0           85381     55.51%     55.51% # Number of insts commited each cycle (Count)
system.cpu.commit.numCommittedDist::1           38992     25.35%     80.86% # Number of insts commited each cycle (Count)
system.cpu.commit.numCommittedDist::2           14279      9.28%     90.14% # Number of insts commited each cycle (Count)
system.cpu.commit.numCommittedDist::3            5815      3.78%     93.93% # Number of insts commited each cycle (Count)
system.cpu.commit.numCommittedDist::4             772      0.50%     94.43% # Number of insts commited each cycle (Count)
system.cpu.commit.numCommittedDist::5             348      0.23%     94.65% # Number of insts commited each cycle (Count)
system.cpu.commit.numCommittedDist::6            4078      2.65%     97.31% # Number of insts commited each cycle (Count)
system.cpu.commit.numCommittedDist::7              94      0.06%     97.37% # Number of insts commited each cycle (Count)
system.cpu.commit.numCommittedDist::8            4051      2.63%    100.00% # Number of insts commited each cycle (Count)
system.cpu.commit.numCommittedDist::overflows            0      0.00%    100.00% # Number of insts commited each cycle (Count)
system.cpu.commit.numCommittedDist::min_value            0                       # Number of insts commited each cycle (Count)
system.cpu.commit.numCommittedDist::max_value            8                       # Number of insts commited each cycle (Count)
system.cpu.commit.numCommittedDist::total       153810                       # Number of insts commited each cycle (Count)
system.cpu.commit.instsCommitted                94409                       # Number of instructions committed (Count)
system.cpu.commit.opsCommitted                 147357                       # Number of ops (including micro ops) committed (Count)
system.cpu.commit.memRefs                       11378                       # Number of memory references committed (Count)
system.cpu.commit.loads                          5646                       # Number of loads committed (Count)
system.cpu.commit.amos                              0                       # Number of atomic instructions committed (Count)
system.cpu.commit.membars                           0                       # Number of memory barriers committed (Count)
system.cpu.commit.branches                       5840                       # Number of branches committed (Count)
system.cpu.commit.vectorInstructions                0                       # Number of committed Vector instructions. (Count)
system.cpu.commit.floating                       1149                       # Number of committed floating point instructions. (Count)
system.cpu.commit.integer                      146608                       # Number of committed integer instructions. (Count)
system.cpu.commit.functionCalls                   150                       # Number of function calls committed. (Count)
system.cpu.commit.committedInstType_0::No_OpClass          194      0.13%      0.13% # Class of committed instruction (Count)
system.cpu.commit.committedInstType_0::IntAlu       135269     91.80%     91.93% # Class of committed instruction (Count)
system.cpu.commit.committedInstType_0::IntMult            5      0.00%     91.93% # Class of committed instruction (Count)
system.cpu.commit.committedInstType_0::IntDiv           21      0.01%     91.95% # Class of committed instruction (Count)
system.cpu.commit.committedInstType_0::FloatAdd          135      0.09%     92.04% # Class of committed instruction (Count)
system.cpu.commit.committedInstType_0::FloatCmp            0      0.00%     92.04% # Class of committed instruction (Count)
system.cpu.commit.committedInstType_0::FloatCvt            0      0.00%     92.04% # Class of committed instruction (Count)
system.cpu.commit.committedInstType_0::FloatMult            0      0.00%     92.04% # Class of committed instruction (Count)
system.cpu.commit.committedInstType_0::FloatMultAcc            0      0.00%     92.04% # Class of committed instruction (Count)
system.cpu.commit.committedInstType_0::FloatDiv            0      0.00%     92.04% # Class of committed instruction (Count)
system.cpu.commit.committedInstType_0::FloatMisc            0      0.00%     92.04% # Class of committed instruction (Count)
system.cpu.commit.committedInstType_0::FloatSqrt            0      0.00%     92.04% # Class of committed instruction (Count)
system.cpu.commit.committedInstType_0::SimdAdd            0      0.00%     92.04% # Class of committed instruction (Count)
system.cpu.commit.committedInstType_0::SimdAddAcc            0      0.00%     92.04% # Class of committed instruction (Count)
system.cpu.commit.committedInstType_0::SimdAlu           94      0.06%     92.10% # Class of committed instruction (Count)
system.cpu.commit.committedInstType_0::SimdCmp            0      0.00%     92.10% # Class of committed instruction (Count)
system.cpu.commit.committedInstType_0::SimdCvt           46      0.03%     92.13% # Class of committed instruction (Count)
system.cpu.commit.committedInstType_0::SimdMisc          215      0.15%     92.28% # Class of committed instruction (Count)
system.cpu.commit.committedInstType_0::SimdMult            0      0.00%     92.28% # Class of committed instruction (Count)
system.cpu.commit.committedInstType_0::SimdMultAcc            0      0.00%     92.28% # Class of committed instruction (Count)
system.cpu.commit.committedInstType_0::SimdShift            0      0.00%     92.28% # Class of committed instruction (Count)
system.cpu.commit.committedInstType_0::SimdShiftAcc            0      0.00%     92.28% # Class of committed instruction (Count)
system.cpu.commit.committedInstType_0::SimdDiv            0      0.00%     92.28% # Class of committed instruction (Count)
system.cpu.commit.committedInstType_0::SimdSqrt            0      0.00%     92.28% # Class of committed instruction (Count)
system.cpu.commit.committedInstType_0::SimdFloatAdd            0      0.00%     92.28% # Class of committed instruction (Count)
system.cpu.commit.committedInstType_0::SimdFloatAlu            0      0.00%     92.28% # Class of committed instruction (Count)
system.cpu.commit.committedInstType_0::SimdFloatCmp            0      0.00%     92.28% # Class of committed instruction (Count)
system.cpu.commit.committedInstType_0::SimdFloatCvt            0      0.00%     92.28% # Class of committed instruction (Count)
system.cpu.commit.committedInstType_0::SimdFloatDiv            0      0.00%     92.28% # Class of committed instruction (Count)
system.cpu.commit.committedInstType_0::SimdFloatMisc            0      0.00%     92.28% # Class of committed instruction (Count)
system.cpu.commit.committedInstType_0::SimdFloatMult            0      0.00%     92.28% # Class of committed instruction (Count)
system.cpu.commit.committedInstType_0::SimdFloatMultAcc            0      0.00%     92.28% # Class of committed instruction (Count)
system.cpu.commit.committedInstType_0::SimdFloatSqrt            0      0.00%     92.28% # Class of committed instruction (Count)
system.cpu.commit.committedInstType_0::SimdReduceAdd            0      0.00%     92.28% # Class of committed instruction (Count)
system.cpu.commit.committedInstType_0::SimdReduceAlu            0      0.00%     92.28% # Class of committed instruction (Count)
system.cpu.commit.committedInstType_0::SimdReduceCmp            0      0.00%     92.28% # Class of committed instruction (Count)
system.cpu.commit.committedInstType_0::SimdFloatReduceAdd            0      0.00%     92.28% # Class of committed instruction (Count)
system.cpu.commit.committedInstType_0::SimdFloatReduceCmp            0      0.00%     92.28% # Class of committed instruction (Count)
system.cpu.commit.committedInstType_0::SimdAes            0      0.00%     92.28% # Class of committed instruction (Count)
system.cpu.commit.committedInstType_0::SimdAesMix            0      0.00%     92.28% # Class of committed instruction (Count)
system.cpu.commit.committedInstType_0::SimdSha1Hash            0      0.00%     92.28% # Class of committed instruction (Count)
system.cpu.commit.committedInstType_0::SimdSha1Hash2            0      0.00%     92.28% # Class of committed instruction (Count)
system.cpu.commit.committedInstType_0::SimdSha256Hash            0      0.00%     92.28% # Class of committed instruction (Count)
system.cpu.commit.committedInstType_0::SimdSha256Hash2            0      0.00%     92.28% # Class of committed instruction (Count)
system.cpu.commit.committedInstType_0::SimdShaSigma2            0      0.00%     92.28% # Class of committed instruction (Count)
system.cpu.commit.committedInstType_0::SimdShaSigma3            0      0.00%     92.28% # Class of committed instruction (Count)
system.cpu.commit.committedInstType_0::SimdPredAlu            0      0.00%     92.28% # Class of committed instruction (Count)
system.cpu.commit.committedInstType_0::MemRead         5592      3.79%     96.07% # Class of committed instruction (Count)
system.cpu.commit.committedInstType_0::MemWrite         5266      3.57%     99.65% # Class of committed instruction (Count)
system.cpu.commit.committedInstType_0::FloatMemRead           54      0.04%     99.68% # Class of committed instruction (Count)
system.cpu.commit.committedInstType_0::FloatMemWrite          466      0.32%    100.00% # Class of committed instruction (Count)
system.cpu.commit.committedInstType_0::IprAccess            0      0.00%    100.00% # Class of committed instruction (Count)
system.cpu.commit.committedInstType_0::InstPrefetch            0      0.00%    100.00% # Class of committed instruction (Count)
system.cpu.commit.committedInstType_0::total       147357                       # Class of committed instruction (Count)
system.cpu.commit.commitEligibleSamples          4051                       # number cycles where commit BW limit reached (Cycle)
system.cpu.dcache.demandHits::cpu.data           3987                       # number of demand (read+write) hits (Count)
system.cpu.dcache.demandHits::total              3987                       # number of demand (read+write) hits (Count)
system.cpu.dcache.overallHits::cpu.data          3987                       # number of overall hits (Count)
system.cpu.dcache.overallHits::total             3987                       # number of overall hits (Count)
system.cpu.dcache.demandMisses::cpu.data         6366                       # number of demand (read+write) misses (Count)
system.cpu.dcache.demandMisses::total            6366                       # number of demand (read+write) misses (Count)
system.cpu.dcache.overallMisses::cpu.data         6366                       # number of overall misses (Count)
system.cpu.dcache.overallMisses::total           6366                       # number of overall misses (Count)
system.cpu.dcache.demandMissLatency::cpu.data    203225000                       # number of demand (read+write) miss ticks (Tick)
system.cpu.dcache.demandMissLatency::total    203225000                       # number of demand (read+write) miss ticks (Tick)
system.cpu.dcache.overallMissLatency::cpu.data    203225000                       # number of overall miss ticks (Tick)
system.cpu.dcache.overallMissLatency::total    203225000                       # number of overall miss ticks (Tick)
system.cpu.dcache.demandAccesses::cpu.data        10353                       # number of demand (read+write) accesses (Count)
system.cpu.dcache.demandAccesses::total         10353                       # number of demand (read+write) accesses (Count)
system.cpu.dcache.overallAccesses::cpu.data        10353                       # number of overall (read+write) accesses (Count)
system.cpu.dcache.overallAccesses::total        10353                       # number of overall (read+write) accesses (Count)
system.cpu.dcache.demandMissRate::cpu.data     0.614894                       # miss rate for demand accesses (Ratio)
system.cpu.dcache.demandMissRate::total      0.614894                       # miss rate for demand accesses (Ratio)
system.cpu.dcache.overallMissRate::cpu.data     0.614894                       # miss rate for overall accesses (Ratio)
system.cpu.dcache.overallMissRate::total     0.614894                       # miss rate for overall accesses (Ratio)
system.cpu.dcache.demandAvgMissLatency::cpu.data 31923.499843                       # average overall miss latency ((Cycle/Count))
system.cpu.dcache.demandAvgMissLatency::total 31923.499843                       # average overall miss latency ((Cycle/Count))
system.cpu.dcache.overallAvgMissLatency::cpu.data 31923.499843                       # average overall miss latency ((Cycle/Count))
system.cpu.dcache.overallAvgMissLatency::total 31923.499843                       # average overall miss latency ((Cycle/Count))
system.cpu.dcache.blockedCycles::no_mshrs          377                       # number of cycles access was blocked (Cycle)
system.cpu.dcache.blockedCycles::no_targets            0                       # number of cycles access was blocked (Cycle)
system.cpu.dcache.blockedCauses::no_mshrs           15                       # number of times access was blocked (Count)
system.cpu.dcache.blockedCauses::no_targets            0                       # number of times access was blocked (Count)
system.cpu.dcache.avgBlocked::no_mshrs      25.133333                       # average number of cycles each access was blocked ((Cycle/Count))
system.cpu.dcache.avgBlocked::no_targets          nan                       # average number of cycles each access was blocked ((Cycle/Count))
system.cpu.dcache.writebacks::writebacks         5888                       # number of writebacks (Count)
system.cpu.dcache.writebacks::total              5888                       # number of writebacks (Count)
system.cpu.dcache.demandMshrHits::cpu.data          203                       # number of demand (read+write) MSHR hits (Count)
system.cpu.dcache.demandMshrHits::total           203                       # number of demand (read+write) MSHR hits (Count)
system.cpu.dcache.overallMshrHits::cpu.data          203                       # number of overall MSHR hits (Count)
system.cpu.dcache.overallMshrHits::total          203                       # number of overall MSHR hits (Count)
system.cpu.dcache.demandMshrMisses::cpu.data         6163                       # number of demand (read+write) MSHR misses (Count)
system.cpu.dcache.demandMshrMisses::total         6163                       # number of demand (read+write) MSHR misses (Count)
system.cpu.dcache.overallMshrMisses::cpu.data         6163                       # number of overall MSHR misses (Count)
system.cpu.dcache.overallMshrMisses::total         6163                       # number of overall MSHR misses (Count)
system.cpu.dcache.demandMshrMissLatency::cpu.data    177903247                       # number of demand (read+write) MSHR miss ticks (Tick)
system.cpu.dcache.demandMshrMissLatency::total    177903247                       # number of demand (read+write) MSHR miss ticks (Tick)
system.cpu.dcache.overallMshrMissLatency::cpu.data    177903247                       # number of overall MSHR miss ticks (Tick)
system.cpu.dcache.overallMshrMissLatency::total    177903247                       # number of overall MSHR miss ticks (Tick)
system.cpu.dcache.demandMshrMissRate::cpu.data     0.595286                       # mshr miss ratio for demand accesses (Ratio)
system.cpu.dcache.demandMshrMissRate::total     0.595286                       # mshr miss ratio for demand accesses (Ratio)
system.cpu.dcache.overallMshrMissRate::cpu.data     0.595286                       # mshr miss ratio for overall accesses (Ratio)
system.cpu.dcache.overallMshrMissRate::total     0.595286                       # mshr miss ratio for overall accesses (Ratio)
system.cpu.dcache.demandAvgMshrMissLatency::cpu.data 28866.338958                       # average overall mshr miss latency ((Cycle/Count))
system.cpu.dcache.demandAvgMshrMissLatency::total 28866.338958                       # average overall mshr miss latency ((Cycle/Count))
system.cpu.dcache.overallAvgMshrMissLatency::cpu.data 28866.338958                       # average overall mshr miss latency ((Cycle/Count))
system.cpu.dcache.overallAvgMshrMissLatency::total 28866.338958                       # average overall mshr miss latency ((Cycle/Count))
system.cpu.dcache.replacements                   5888                       # number of replacements (Count)
system.cpu.dcache.ReadReq.hits::cpu.data         2324                       # number of ReadReq hits (Count)
system.cpu.dcache.ReadReq.hits::total            2324                       # number of ReadReq hits (Count)
system.cpu.dcache.ReadReq.misses::cpu.data         2296                       # number of ReadReq misses (Count)
system.cpu.dcache.ReadReq.misses::total          2296                       # number of ReadReq misses (Count)
system.cpu.dcache.ReadReq.missLatency::cpu.data     70537000                       # number of ReadReq miss ticks (Tick)
system.cpu.dcache.ReadReq.missLatency::total     70537000                       # number of ReadReq miss ticks (Tick)
system.cpu.dcache.ReadReq.accesses::cpu.data         4620                       # number of ReadReq accesses(hits+misses) (Count)
system.cpu.dcache.ReadReq.accesses::total         4620                       # number of ReadReq accesses(hits+misses) (Count)
system.cpu.dcache.ReadReq.missRate::cpu.data     0.496970                       # miss rate for ReadReq accesses (Ratio)
system.cpu.dcache.ReadReq.missRate::total     0.496970                       # miss rate for ReadReq accesses (Ratio)
system.cpu.dcache.ReadReq.avgMissLatency::cpu.data 30721.689895                       # average ReadReq miss latency ((Tick/Count))
system.cpu.dcache.ReadReq.avgMissLatency::total 30721.689895                       # average ReadReq miss latency ((Tick/Count))
system.cpu.dcache.ReadReq.mshrHits::cpu.data          201                       # number of ReadReq MSHR hits (Count)
system.cpu.dcache.ReadReq.mshrHits::total          201                       # number of ReadReq MSHR hits (Count)
system.cpu.dcache.ReadReq.mshrMisses::cpu.data         2095                       # number of ReadReq MSHR misses (Count)
system.cpu.dcache.ReadReq.mshrMisses::total         2095                       # number of ReadReq MSHR misses (Count)
system.cpu.dcache.ReadReq.mshrMissLatency::cpu.data     53448154                       # number of ReadReq MSHR miss ticks (Tick)
system.cpu.dcache.ReadReq.mshrMissLatency::total     53448154                       # number of ReadReq MSHR miss ticks (Tick)
system.cpu.dcache.ReadReq.mshrMissRate::cpu.data     0.453463                       # mshr miss rate for ReadReq accesses (Ratio)
system.cpu.dcache.ReadReq.mshrMissRate::total     0.453463                       # mshr miss rate for ReadReq accesses (Ratio)
system.cpu.dcache.ReadReq.avgMshrMissLatency::cpu.data 25512.245346                       # average ReadReq mshr miss latency ((Tick/Count))
system.cpu.dcache.ReadReq.avgMshrMissLatency::total 25512.245346                       # average ReadReq mshr miss latency ((Tick/Count))
system.cpu.dcache.WriteReq.hits::cpu.data         1663                       # number of WriteReq hits (Count)
system.cpu.dcache.WriteReq.hits::total           1663                       # number of WriteReq hits (Count)
system.cpu.dcache.WriteReq.misses::cpu.data         4070                       # number of WriteReq misses (Count)
system.cpu.dcache.WriteReq.misses::total         4070                       # number of WriteReq misses (Count)
system.cpu.dcache.WriteReq.missLatency::cpu.data    132688000                       # number of WriteReq miss ticks (Tick)
system.cpu.dcache.WriteReq.missLatency::total    132688000                       # number of WriteReq miss ticks (Tick)
system.cpu.dcache.WriteReq.accesses::cpu.data         5733                       # number of WriteReq accesses(hits+misses) (Count)
system.cpu.dcache.WriteReq.accesses::total         5733                       # number of WriteReq accesses(hits+misses) (Count)
system.cpu.dcache.WriteReq.missRate::cpu.data     0.709925                       # miss rate for WriteReq accesses (Ratio)
system.cpu.dcache.WriteReq.missRate::total     0.709925                       # miss rate for WriteReq accesses (Ratio)
system.cpu.dcache.WriteReq.avgMissLatency::cpu.data 32601.474201                       # average WriteReq miss latency ((Tick/Count))
system.cpu.dcache.WriteReq.avgMissLatency::total 32601.474201                       # average WriteReq miss latency ((Tick/Count))
system.cpu.dcache.WriteReq.mshrHits::cpu.data            2                       # number of WriteReq MSHR hits (Count)
system.cpu.dcache.WriteReq.mshrHits::total            2                       # number of WriteReq MSHR hits (Count)
system.cpu.dcache.WriteReq.mshrMisses::cpu.data         4068                       # number of WriteReq MSHR misses (Count)
system.cpu.dcache.WriteReq.mshrMisses::total         4068                       # number of WriteReq MSHR misses (Count)
system.cpu.dcache.WriteReq.mshrMissLatency::cpu.data    124455093                       # number of WriteReq MSHR miss ticks (Tick)
system.cpu.dcache.WriteReq.mshrMissLatency::total    124455093                       # number of WriteReq MSHR miss ticks (Tick)
system.cpu.dcache.WriteReq.mshrMissRate::cpu.data     0.709576                       # mshr miss rate for WriteReq accesses (Ratio)
system.cpu.dcache.WriteReq.mshrMissRate::total     0.709576                       # mshr miss rate for WriteReq accesses (Ratio)
system.cpu.dcache.WriteReq.avgMshrMissLatency::cpu.data 30593.680678                       # average WriteReq mshr miss latency ((Tick/Count))
system.cpu.dcache.WriteReq.avgMshrMissLatency::total 30593.680678                       # average WriteReq mshr miss latency ((Tick/Count))
system.cpu.dcache.power_state.pwrStateResidencyTicks::UNDEFINED    177797000                       # Cumulative time (in ticks) in various power states (Tick)
system.cpu.dcache.tags.tagsInUse           195.314691                       # Average ticks per tags in use ((Tick/Count))
system.cpu.dcache.tags.totalRefs                10152                       # Total number of references to valid blocks. (Count)
system.cpu.dcache.tags.sampledRefs               6127                       # Sample count of references to valid blocks. (Count)
system.cpu.dcache.tags.avgRefs               1.656928                       # Average number of references to valid blocks. ((Count/Count))
system.cpu.dcache.tags.warmupTick              229000                       # The tick when the warmup percentage was hit. (Tick)
system.cpu.dcache.tags.occupancies::cpu.data   195.314691                       # Average occupied blocks per tick, per requestor ((Count/Tick))
system.cpu.dcache.tags.avgOccs::cpu.data     0.190737                       # Average percentage of cache occupancy ((Ratio/Tick))
system.cpu.dcache.tags.avgOccs::total        0.190737                       # Average percentage of cache occupancy ((Ratio/Tick))
system.cpu.dcache.tags.occupanciesTaskId::1024          239                       # Occupied blocks per task id (Count)
system.cpu.dcache.tags.ageTaskId_1024::0           20                       # Occupied blocks per task id, per block age (Count)
system.cpu.dcache.tags.ageTaskId_1024::2          219                       # Occupied blocks per task id, per block age (Count)
system.cpu.dcache.tags.ratioOccsTaskId::1024     0.233398                       # Ratio of occupied blocks and all blocks, per task id (Ratio)
system.cpu.dcache.tags.tagAccesses              26833                       # Number of tag accesses (Count)
system.cpu.dcache.tags.dataAccesses             26833                       # Number of data accesses (Count)
system.cpu.dcache.tags.power_state.pwrStateResidencyTicks::UNDEFINED    177797000                       # Cumulative time (in ticks) in various power states (Tick)
system.cpu.decode.idleCycles                    21539                       # Number of cycles decode is idle (Cycle)
system.cpu.decode.blockedCycles                111924                       # Number of cycles decode is blocked (Cycle)
system.cpu.decode.runCycles                      8740                       # Number of cycles decode is running (Cycle)
system.cpu.decode.unblockCycles                 12984                       # Number of cycles decode is unblocking (Cycle)
system.cpu.decode.squashCycles                    605                       # Number of cycles decode is squashing (Cycle)
system.cpu.decode.branchResolved                 5397                       # Number of times decode resolved a branch (Count)
system.cpu.decode.branchMispred                   228                       # Number of times decode detected a branch misprediction (Count)
system.cpu.decode.decodedInsts                 163513                       # Number of instructions handled by decode (Count)
system.cpu.decode.squashedInsts                  1158                       # Number of squashed instructions handled by decode (Count)
system.cpu.fetch.icacheStallCycles              25700                       # Number of cycles fetch is stalled on an Icache miss (Cycle)
system.cpu.fetch.insts                         105252                       # Number of instructions fetch has processed (Count)
system.cpu.fetch.branches                        8129                       # Number of branches that fetch encountered (Count)
system.cpu.fetch.predictedBranches               5547                       # Number of branches that fetch has predicted taken (Count)
system.cpu.fetch.cycles                        128340                       # Number of cycles fetch has run and was not squashing or blocked (Cycle)
system.cpu.fetch.squashCycles                    1646                       # Number of cycles fetch has spent squashing (Cycle)
system.cpu.fetch.miscStallCycles                  132                       # Number of cycles fetch has spent waiting on interrupts, or bad addresses, or out of MSHRs (Cycle)
system.cpu.fetch.pendingTrapStallCycles           782                       # Number of stall cycles due to pending traps (Cycle)
system.cpu.fetch.pendingQuiesceStallCycles            4                       # Number of stall cycles due to pending quiesce instructions (Cycle)
system.cpu.fetch.icacheWaitRetryStallCycles           11                       # Number of stall cycles due to full MSHR (Cycle)
system.cpu.fetch.cacheLines                     10681                       # Number of cache lines fetched (Count)
system.cpu.fetch.icacheSquashes                   353                       # Number of outstanding Icache misses that were squashed (Count)
system.cpu.fetch.nisnDist::samples             155792                       # Number of instructions fetched each cycle (Total) (Count)
system.cpu.fetch.nisnDist::mean              1.075235                       # Number of instructions fetched each cycle (Total) (Count)
system.cpu.fetch.nisnDist::stdev             2.543937                       # Number of instructions fetched each cycle (Total) (Count)
system.cpu.fetch.nisnDist::underflows               0      0.00%      0.00% # Number of instructions fetched each cycle (Total) (Count)
system.cpu.fetch.nisnDist::0                   129653     83.22%     83.22% # Number of instructions fetched each cycle (Total) (Count)
system.cpu.fetch.nisnDist::1                      247      0.16%     83.38% # Number of instructions fetched each cycle (Total) (Count)
system.cpu.fetch.nisnDist::2                      201      0.13%     83.51% # Number of instructions fetched each cycle (Total) (Count)
system.cpu.fetch.nisnDist::3                     4448      2.86%     86.36% # Number of instructions fetched each cycle (Total) (Count)
system.cpu.fetch.nisnDist::4                      575      0.37%     86.73% # Number of instructions fetched each cycle (Total) (Count)
system.cpu.fetch.nisnDist::5                     4436      2.85%     89.58% # Number of instructions fetched each cycle (Total) (Count)
system.cpu.fetch.nisnDist::6                      272      0.17%     89.76% # Number of instructions fetched each cycle (Total) (Count)
system.cpu.fetch.nisnDist::7                      272      0.17%     89.93% # Number of instructions fetched each cycle (Total) (Count)
system.cpu.fetch.nisnDist::8                    15688     10.07%    100.00% # Number of instructions fetched each cycle (Total) (Count)
system.cpu.fetch.nisnDist::overflows                0      0.00%    100.00% # Number of instructions fetched each cycle (Total) (Count)
system.cpu.fetch.nisnDist::min_value                0                       # Number of instructions fetched each cycle (Total) (Count)
system.cpu.fetch.nisnDist::max_value                8                       # Number of instructions fetched each cycle (Total) (Count)
system.cpu.fetch.nisnDist::total               155792                       # Number of instructions fetched each cycle (Total) (Count)
system.cpu.fetch.branchRate                  0.045720                       # Number of branch fetches per cycle (Ratio)
system.cpu.fetch.rate                        0.591975                       # Number of inst fetches per cycle ((Count/Cycle))
system.cpu.icache.demandHits::cpu.inst          10052                       # number of demand (read+write) hits (Count)
system.cpu.icache.demandHits::total             10052                       # number of demand (read+write) hits (Count)
system.cpu.icache.overallHits::cpu.inst         10052                       # number of overall hits (Count)
system.cpu.icache.overallHits::total            10052                       # number of overall hits (Count)
system.cpu.icache.demandMisses::cpu.inst          629                       # number of demand (read+write) misses (Count)
system.cpu.icache.demandMisses::total             629                       # number of demand (read+write) misses (Count)
system.cpu.icache.overallMisses::cpu.inst          629                       # number of overall misses (Count)
system.cpu.icache.overallMisses::total            629                       # number of overall misses (Count)
system.cpu.icache.demandMissLatency::cpu.inst     63577000                       # number of demand (read+write) miss ticks (Tick)
system.cpu.icache.demandMissLatency::total     63577000                       # number of demand (read+write) miss ticks (Tick)
system.cpu.icache.overallMissLatency::cpu.inst     63577000                       # number of overall miss ticks (Tick)
system.cpu.icache.overallMissLatency::total     63577000                       # number of overall miss ticks (Tick)
system.cpu.icache.demandAccesses::cpu.inst        10681                       # number of demand (read+write) accesses (Count)
system.cpu.icache.demandAccesses::total         10681                       # number of demand (read+write) accesses (Count)
system.cpu.icache.overallAccesses::cpu.inst        10681                       # number of overall (read+write) accesses (Count)
system.cpu.icache.overallAccesses::total        10681                       # number of overall (read+write) accesses (Count)
system.cpu.icache.demandMissRate::cpu.inst     0.058890                       # miss rate for demand accesses (Ratio)
system.cpu.icache.demandMissRate::total      0.058890                       # miss rate for demand accesses (Ratio)
system.cpu.icache.overallMissRate::cpu.inst     0.058890                       # miss rate for overall accesses (Ratio)
system.cpu.icache.overallMissRate::total     0.058890                       # miss rate for overall accesses (Ratio)
system.cpu.icache.demandAvgMissLatency::cpu.inst 101076.311606                       # average overall miss latency ((Cycle/Count))
system.cpu.icache.demandAvgMissLatency::total 101076.311606                       # average overall miss latency ((Cycle/Count))
system.cpu.icache.overallAvgMissLatency::cpu.inst 101076.311606                       # average overall miss latency ((Cycle/Count))
system.cpu.icache.overallAvgMissLatency::total 101076.311606                       # average overall miss latency ((Cycle/Count))
system.cpu.icache.blockedCycles::no_mshrs           74                       # number of cycles access was blocked (Cycle)
system.cpu.icache.blockedCycles::no_targets            0                       # number of cycles access was blocked (Cycle)
system.cpu.icache.blockedCauses::no_mshrs            2                       # number of times access was blocked (Count)
system.cpu.icache.blockedCauses::no_targets            0                       # number of times access was blocked (Count)
system.cpu.icache.avgBlocked::no_mshrs             37                       # average number of cycles each access was blocked ((Cycle/Count))
system.cpu.icache.avgBlocked::no_targets          nan                       # average number of cycles each access was blocked ((Cycle/Count))
system.cpu.icache.demandMshrHits::cpu.inst          148                       # number of demand (read+write) MSHR hits (Count)
system.cpu.icache.demandMshrHits::total           148                       # number of demand (read+write) MSHR hits (Count)
system.cpu.icache.overallMshrHits::cpu.inst          148                       # number of overall MSHR hits (Count)
system.cpu.icache.overallMshrHits::total          148                       # number of overall MSHR hits (Count)
system.cpu.icache.demandMshrMisses::cpu.inst          481                       # number of demand (read+write) MSHR misses (Count)
system.cpu.icache.demandMshrMisses::total          481                       # number of demand (read+write) MSHR misses (Count)
system.cpu.icache.overallMshrMisses::cpu.inst          481                       # number of overall MSHR misses (Count)
system.cpu.icache.overallMshrMisses::total          481                       # number of overall MSHR misses (Count)
system.cpu.icache.demandMshrMissLatency::cpu.inst     50582000                       # number of demand (read+write) MSHR miss ticks (Tick)
system.cpu.icache.demandMshrMissLatency::total     50582000                       # number of demand (read+write) MSHR miss ticks (Tick)
system.cpu.icache.overallMshrMissLatency::cpu.inst     50582000                       # number of overall MSHR miss ticks (Tick)
system.cpu.icache.overallMshrMissLatency::total     50582000                       # number of overall MSHR miss ticks (Tick)
system.cpu.icache.demandMshrMissRate::cpu.inst     0.045033                       # mshr miss ratio for demand accesses (Ratio)
system.cpu.icache.demandMshrMissRate::total     0.045033                       # mshr miss ratio for demand accesses (Ratio)
system.cpu.icache.overallMshrMissRate::cpu.inst     0.045033                       # mshr miss ratio for overall accesses (Ratio)
system.cpu.icache.overallMshrMissRate::total     0.045033                       # mshr miss ratio for overall accesses (Ratio)
system.cpu.icache.demandAvgMshrMissLatency::cpu.inst 105160.083160                       # average overall mshr miss latency ((Cycle/Count))
system.cpu.icache.demandAvgMshrMissLatency::total 105160.083160                       # average overall mshr miss latency ((Cycle/Count))
system.cpu.icache.overallAvgMshrMissLatency::cpu.inst 105160.083160                       # average overall mshr miss latency ((Cycle/Count))
system.cpu.icache.overallAvgMshrMissLatency::total 105160.083160                       # average overall mshr miss latency ((Cycle/Count))
system.cpu.icache.replacements                    236                       # number of replacements (Count)
system.cpu.icache.ReadReq.hits::cpu.inst        10052                       # number of ReadReq hits (Count)
system.cpu.icache.ReadReq.hits::total           10052                       # number of ReadReq hits (Count)
system.cpu.icache.ReadReq.misses::cpu.inst          629                       # number of ReadReq misses (Count)
system.cpu.icache.ReadReq.misses::total           629                       # number of ReadReq misses (Count)
system.cpu.icache.ReadReq.missLatency::cpu.inst     63577000                       # number of ReadReq miss ticks (Tick)
system.cpu.icache.ReadReq.missLatency::total     63577000                       # number of ReadReq miss ticks (Tick)
system.cpu.icache.ReadReq.accesses::cpu.inst        10681                       # number of ReadReq accesses(hits+misses) (Count)
system.cpu.icache.ReadReq.accesses::total        10681                       # number of ReadReq accesses(hits+misses) (Count)
system.cpu.icache.ReadReq.missRate::cpu.inst     0.058890                       # miss rate for ReadReq accesses (Ratio)
system.cpu.icache.ReadReq.missRate::total     0.058890                       # miss rate for ReadReq accesses (Ratio)
system.cpu.icache.ReadReq.avgMissLatency::cpu.inst 101076.311606                       # average ReadReq miss latency ((Tick/Count))
system.cpu.icache.ReadReq.avgMissLatency::total 101076.311606                       # average ReadReq miss latency ((Tick/Count))
system.cpu.icache.ReadReq.mshrHits::cpu.inst          148                       # number of ReadReq MSHR hits (Count)
system.cpu.icache.ReadReq.mshrHits::total          148                       # number of ReadReq MSHR hits (Count)
system.cpu.icache.ReadReq.mshrMisses::cpu.inst          481                       # number of ReadReq MSHR misses (Count)
system.cpu.icache.ReadReq.mshrMisses::total          481                       # number of ReadReq MSHR misses (Count)
system.cpu.icache.ReadReq.mshrMissLatency::cpu.inst     50582000                       # number of ReadReq MSHR miss ticks (Tick)
system.cpu.icache.ReadReq.mshrMissLatency::total     50582000                       # number of ReadReq MSHR miss ticks (Tick)
system.cpu.icache.ReadReq.mshrMissRate::cpu.inst     0.045033                       # mshr miss rate for ReadReq accesses (Ratio)
system.cpu.icache.ReadReq.mshrMissRate::total     0.045033                       # mshr miss rate for ReadReq accesses (Ratio)
system.cpu.icache.ReadReq.avgMshrMissLatency::cpu.inst 105160.083160                       # average ReadReq mshr miss latency ((Tick/Count))
system.cpu.icache.ReadReq.avgMshrMissLatency::total 105160.083160                       # average ReadReq mshr miss latency ((Tick/Count))
system.cpu.icache.power_state.pwrStateResidencyTicks::UNDEFINED    177797000                       # Cumulative time (in ticks) in various power states (Tick)
system.cpu.icache.tags.tagsInUse           217.659218                       # Average ticks per tags in use ((Tick/Count))
system.cpu.icache.tags.totalRefs                10533                       # Total number of references to valid blocks. (Count)
system.cpu.icache.tags.sampledRefs                481                       # Sample count of references to valid blocks. (Count)
system.cpu.icache.tags.avgRefs              21.898129                       # Average number of references to valid blocks. ((Count/Count))
system.cpu.icache.tags.warmupTick              109000                       # The tick when the warmup percentage was hit. (Tick)
system.cpu.icache.tags.occupancies::cpu.inst   217.659218                       # Average occupied blocks per tick, per requestor ((Count/Tick))
system.cpu.icache.tags.avgOccs::cpu.inst     0.850231                       # Average percentage of cache occupancy ((Ratio/Tick))
system.cpu.icache.tags.avgOccs::total        0.850231                       # Average percentage of cache occupancy ((Ratio/Tick))
system.cpu.icache.tags.occupanciesTaskId::1024          245                       # Occupied blocks per task id (Count)
system.cpu.icache.tags.ageTaskId_1024::0           37                       # Occupied blocks per task id, per block age (Count)
system.cpu.icache.tags.ageTaskId_1024::2          208                       # Occupied blocks per task id, per block age (Count)
system.cpu.icache.tags.ratioOccsTaskId::1024     0.957031                       # Ratio of occupied blocks and all blocks, per task id (Ratio)
system.cpu.icache.tags.tagAccesses              21843                       # Number of tag accesses (Count)
system.cpu.icache.tags.dataAccesses             21843                       # Number of data accesses (Count)
system.cpu.icache.tags.power_state.pwrStateResidencyTicks::UNDEFINED    177797000                       # Cumulative time (in ticks) in various power states (Tick)
system.cpu.interrupts.clk_domain.clock          16000                       # Clock period in ticks (Tick)
system.cpu.lsq0.forwLoads                        2076                       # Number of loads that had data forwarded from stores (Count)
system.cpu.lsq0.squashedLoads                    1553                       # Number of loads squashed (Count)
system.cpu.lsq0.ignoredResponses                    3                       # Number of memory responses ignored because the instruction is squashed (Count)
system.cpu.lsq0.memOrderViolation                  12                       # Number of memory ordering violations (Count)
system.cpu.lsq0.squashedStores                    957                       # Number of stores squashed (Count)
system.cpu.lsq0.rescheduledLoads                    1                       # Number of loads that were rescheduled (Count)
system.cpu.lsq0.blockedByCache                     10                       # Number of times an access to memory failed due to the cache being blocked (Count)
system.cpu.lsq0.loadToUse::samples               5646                       # Distribution of cycle latency between the first time a load is issued and its completion (Unspecified)
system.cpu.lsq0.loadToUse::mean             12.547644                       # Distribution of cycle latency between the first time a load is issued and its completion (Unspecified)
system.cpu.lsq0.loadToUse::stdev            23.181040                       # Distribution of cycle latency between the first time a load is issued and its completion (Unspecified)
system.cpu.lsq0.loadToUse::0-9                   4582     81.15%     81.15% # Distribution of cycle latency between the first time a load is issued and its completion (Unspecified)
system.cpu.lsq0.loadToUse::10-19                   20      0.35%     81.51% # Distribution of cycle latency between the first time a load is issued and its completion (Unspecified)
system.cpu.lsq0.loadToUse::20-29                   26      0.46%     81.97% # Distribution of cycle latency between the first time a load is issued and its completion (Unspecified)
system.cpu.lsq0.loadToUse::30-39                  387      6.85%     88.82% # Distribution of cycle latency between the first time a load is issued and its completion (Unspecified)
system.cpu.lsq0.loadToUse::40-49                    4      0.07%     88.89% # Distribution of cycle latency between the first time a load is issued and its completion (Unspecified)
system.cpu.lsq0.loadToUse::50-59                  481      8.52%     97.41% # Distribution of cycle latency between the first time a load is issued and its completion (Unspecified)
system.cpu.lsq0.loadToUse::60-69                    9      0.16%     97.57% # Distribution of cycle latency between the first time a load is issued and its completion (Unspecified)
system.cpu.lsq0.loadToUse::70-79                    4      0.07%     97.64% # Distribution of cycle latency between the first time a load is issued and its completion (Unspecified)
system.cpu.lsq0.loadToUse::80-89                    7      0.12%     97.77% # Distribution of cycle latency between the first time a load is issued and its completion (Unspecified)
system.cpu.lsq0.loadToUse::90-99                    3      0.05%     97.82% # Distribution of cycle latency between the first time a load is issued and its completion (Unspecified)
system.cpu.lsq0.loadToUse::100-109                 37      0.66%     98.48% # Distribution of cycle latency between the first time a load is issued and its completion (Unspecified)
system.cpu.lsq0.loadToUse::110-119                 26      0.46%     98.94% # Distribution of cycle latency between the first time a load is issued and its completion (Unspecified)
system.cpu.lsq0.loadToUse::120-129                 35      0.62%     99.56% # Distribution of cycle latency between the first time a load is issued and its completion (Unspecified)
system.cpu.lsq0.loadToUse::130-139                  9      0.16%     99.72% # Distribution of cycle latency between the first time a load is issued and its completion (Unspecified)
system.cpu.lsq0.loadToUse::150-159                  1      0.02%     99.73% # Distribution of cycle latency between the first time a load is issued and its completion (Unspecified)
system.cpu.lsq0.loadToUse::160-169                  1      0.02%     99.75% # Distribution of cycle latency between the first time a load is issued and its completion (Unspecified)
system.cpu.lsq0.loadToUse::170-179                  9      0.16%     99.91% # Distribution of cycle latency between the first time a load is issued and its completion (Unspecified)
system.cpu.lsq0.loadToUse::200-209                  3      0.05%     99.96% # Distribution of cycle latency between the first time a load is issued and its completion (Unspecified)
system.cpu.lsq0.loadToUse::210-219                  2      0.04%    100.00% # Distribution of cycle latency between the first time a load is issued and its completion (Unspecified)
system.cpu.lsq0.loadToUse::min_value                2                       # Distribution of cycle latency between the first time a load is issued and its completion (Unspecified)
system.cpu.lsq0.loadToUse::max_value              213                       # Distribution of cycle latency between the first time a load is issued and its completion (Unspecified)
system.cpu.lsq0.loadToUse::total                 5646                       # Distribution of cycle latency between the first time a load is issued and its completion (Unspecified)
system.cpu.mmu.dtb.rdAccesses                    6763                       # TLB accesses on read requests (Count)
system.cpu.mmu.dtb.wrAccesses                    6270                       # TLB accesses on write requests (Count)
system.cpu.mmu.dtb.rdMisses                        90                       # TLB misses on read requests (Count)
system.cpu.mmu.dtb.wrMisses                        40                       # TLB misses on write requests (Count)
system.cpu.mmu.dtb.walker.power_state.pwrStateResidencyTicks::UNDEFINED    177797000                       # Cumulative time (in ticks) in various power states (Tick)
system.cpu.mmu.itb.rdAccesses                       0                       # TLB accesses on read requests (Count)
system.cpu.mmu.itb.wrAccesses                   10816                       # TLB accesses on write requests (Count)
system.cpu.mmu.itb.rdMisses                         0                       # TLB misses on read requests (Count)
system.cpu.mmu.itb.wrMisses                       177                       # TLB misses on write requests (Count)
system.cpu.mmu.itb.walker.power_state.pwrStateResidencyTicks::UNDEFINED    177797000                       # Cumulative time (in ticks) in various power states (Tick)
system.cpu.power_state.pwrStateResidencyTicks::ON    177797000                       # Cumulative time (in ticks) in various power states (Tick)
system.cpu.rename.squashCycles                    605                       # Number of cycles rename is squashing (Cycle)
system.cpu.rename.idleCycles                    25973                       # Number of cycles rename is idle (Cycle)
system.cpu.rename.blockCycles                   39109                       # Number of cycles rename is blocking (Cycle)
system.cpu.rename.serializeStallCycles             35                       # count of cycles rename stalled for serializing inst (Cycle)
system.cpu.rename.runCycles                     16786                       # Number of cycles rename is running (Cycle)
system.cpu.rename.unblockCycles                 73284                       # Number of cycles rename is unblocking (Cycle)
system.cpu.rename.renamedInsts                 162292                       # Number of instructions processed by rename (Count)
system.cpu.rename.ROBFullEvents                    14                       # Number of times rename has blocked due to ROB full (Count)
[...]
system.victimbus.pktCount_system.cpu.dcache.mem_side_port::system.victimcache.cpu_side_port        18218                       # Packet count per connected requestor and responder (Count)
system.victimbus.pktSize_system.cpu.dcache.mem_side_port::system.victimcache.cpu_side_port       768960                       # Cumulative packet size per connected requestor and responder (Byte)
system.victimbus.snoops                          6995                       # Total snoops (Count)
system.victimbus.snoopTraffic                  447680                       # Total snoop traffic (Byte)
system.victimbus.snoopFanout::samples           13160                       # Request fanout histogram (Count)
system.victimbus.snoopFanout::mean           0.259574                       # Request fanout histogram (Count)
system.victimbus.snoopFanout::stdev          0.438418                       # Request fanout histogram (Count)
system.victimbus.snoopFanout::underflows            0      0.00%      0.00% # Request fanout histogram (Count)
system.victimbus.snoopFanout::0                  9744     74.04%     74.04% # Request fanout histogram (Count)
system.victimbus.snoopFanout::1                  3416     25.96%    100.00% # Request fanout histogram (Count)
system.victimbus.snoopFanout::overflows             0      0.00%    100.00% # Request fanout histogram (Count)
system.victimbus.snoopFanout::min_value             0                       # Request fanout histogram (Count)
system.victimbus.snoopFanout::max_value             1                       # Request fanout histogram (Count)
system.victimbus.snoopFanout::total             13160                       # Request fanout histogram (Count)
system.victimbus.power_state.pwrStateResidencyTicks::UNDEFINED    177797000                       # Cumulative time (in ticks) in various power states (Tick)
system.victimbus.reqLayer0.occupancy         17941000                       # Layer occupancy (ticks) (Tick)
system.victimbus.reqLayer0.utilization            0.1                       # Layer utilization (Ratio)
system.victimbus.respLayer0.occupancy        18204082                       # Layer occupancy (ticks) (Tick)
system.victimbus.respLayer0.utilization           0.1                       # Layer utilization (Ratio)
system.victimbus.snoop_filter.totRequests        12053                       # Total number of requests made to the snoop filter. (Count)
system.victimbus.snoop_filter.hitSingleRequests         5926                       # Number of requests hitting in the snoop filter with a single holder of the requested data. (Count)
system.victimbus.snoop_filter.hitMultiRequests            0                       # Number of requests hitting in the snoop filter with multiple (>1) holders of the requested data. (Count)
system.victimbus.snoop_filter.totSnoops          3416                       # Total number of snoops made to the snoop filter. (Count)
system.victimbus.snoop_filter.hitSingleSnoops         3416                       # Number of snoops hitting in the snoop filter with a single holder of the requested data. (Count)
system.victimbus.snoop_filter.hitMultiSnoops            0                       # Number of snoops hitting in the snoop filter with multiple (>1) holders of the requested data. (Count)
system.victimcache.demandHits::cpu.data          2588                       # number of demand (read+write) hits (Count)
system.victimcache.demandHits::total             2588                       # number of demand (read+write) hits (Count)
system.victimcache.overallHits::cpu.data         2588                       # number of overall hits (Count)
system.victimcache.overallHits::total            2588                       # number of overall hits (Count)
system.victimcache.demandMisses::cpu.data         3539                       # number of demand (read+write) misses (Count)
system.victimcache.demandMisses::total           3539                       # number of demand (read+write) misses (Count)
system.victimcache.overallMisses::cpu.data         3539                       # number of overall misses (Count)
system.victimcache.overallMisses::total          3539                       # number of overall misses (Count)
system.victimcache.demandMissLatency::cpu.data    156999000                       # number of demand (read+write) miss ticks (Tick)
system.victimcache.demandMissLatency::total    156999000                       # number of demand (read+write) miss ticks (Tick)
system.victimcache.overallMissLatency::cpu.data    156999000                       # number of overall miss ticks (Tick)
system.victimcache.overallMissLatency::total    156999000                       # number of overall miss ticks (Tick)
system.victimcache.demandAccesses::cpu.data         6127                       # number of demand (read+write) accesses (Count)
system.victimcache.demandAccesses::total         6127                       # number of demand (read+write) accesses (Count)
system.victimcache.overallAccesses::cpu.data         6127                       # number of overall (read+write) accesses (Count)
system.victimcache.overallAccesses::total         6127                       # number of overall (read+write) accesses (Count)
system.victimcache.demandMissRate::cpu.data     0.577607                       # miss rate for demand accesses (Ratio)
system.victimcache.demandMissRate::total     0.577607                       # miss rate for demand accesses (Ratio)
system.victimcache.overallMissRate::cpu.data     0.577607                       # miss rate for overall accesses (Ratio)
system.victimcache.overallMissRate::total     0.577607                       # miss rate for overall accesses (Ratio)
system.victimcache.demandAvgMissLatency::cpu.data 44362.531789                       # average overall miss latency ((Cycle/Count))
system.victimcache.demandAvgMissLatency::total 44362.531789                       # average overall miss latency ((Cycle/Count))
system.victimcache.overallAvgMissLatency::cpu.data 44362.531789                       # average overall miss latency ((Cycle/Count))
system.victimcache.overallAvgMissLatency::total 44362.531789                       # average overall miss latency ((Cycle/Count))
system.victimcache.blockedCycles::no_mshrs          334                       # number of cycles access was blocked (Cycle)
system.victimcache.blockedCycles::no_targets            0                       # number of cycles access was blocked (Cycle)
system.victimcache.blockedCauses::no_mshrs            9                       # number of times access was blocked (Count)
system.victimcache.blockedCauses::no_targets            0                       # number of times access was blocked (Count)
system.victimcache.avgBlocked::no_mshrs     37.111111                       # average number of cycles each access was blocked ((Cycle/Count))
system.victimcache.avgBlocked::no_targets          nan                       # average number of cycles each access was blocked ((Cycle/Count))
system.victimcache.writebacks::writebacks         6563                       # number of writebacks (Count)
system.victimcache.writebacks::total             6563                       # number of writebacks (Count)
system.victimcache.demandMshrMisses::cpu.data         3539                       # number of demand (read+write) MSHR misses (Count)
system.victimcache.demandMshrMisses::total         3539                       # number of demand (read+write) MSHR misses (Count)
system.victimcache.overallMshrMisses::cpu.data         3539                       # number of overall MSHR misses (Count)
system.victimcache.overallMshrMisses::total         3539                       # number of overall MSHR misses (Count)
system.victimcache.demandMshrMissLatency::cpu.data    156999000                       # number of demand (read+write) MSHR miss ticks (Tick)
system.victimcache.demandMshrMissLatency::total    156999000                       # number of demand (read+write) MSHR miss ticks (Tick)
system.victimcache.overallMshrMissLatency::cpu.data    156999000                       # number of overall MSHR miss ticks (Tick)
system.victimcache.overallMshrMissLatency::total    156999000                       # number of overall MSHR miss ticks (Tick)
system.victimcache.demandMshrMissRate::cpu.data     0.577607                       # mshr miss ratio for demand accesses (Ratio)
system.victimcache.demandMshrMissRate::total     0.577607                       # mshr miss ratio for demand accesses (Ratio)
system.victimcache.overallMshrMissRate::cpu.data     0.577607                       # mshr miss ratio for overall accesses (Ratio)
system.victimcache.overallMshrMissRate::total     0.577607                       # mshr miss ratio for overall accesses (Ratio)
system.victimcache.demandAvgMshrMissLatency::cpu.data 44362.531789                       # average overall mshr miss latency ((Cycle/Count))
system.victimcache.demandAvgMshrMissLatency::total 44362.531789                       # average overall mshr miss latency ((Cycle/Count))
system.victimcache.overallAvgMshrMissLatency::cpu.data 44362.531789                       # average overall mshr miss latency ((Cycle/Count))
system.victimcache.overallAvgMshrMissLatency::total 44362.531789                       # average overall mshr miss latency ((Cycle/Count))
system.victimcache.replacements                  3154                       # number of replacements (Count)
system.victimcache.ReadExReq.hits::cpu.data         1483                       # number of ReadExReq hits (Count)
system.victimcache.ReadExReq.hits::total         1483                       # number of ReadExReq hits (Count)
system.victimcache.ReadExReq.misses::cpu.data         2549                       # number of ReadExReq misses (Count)
system.victimcache.ReadExReq.misses::total         2549                       # number of ReadExReq misses (Count)
system.victimcache.ReadExReq.missLatency::cpu.data    109986000                       # number of ReadExReq miss ticks (Tick)
system.victimcache.ReadExReq.missLatency::total    109986000                       # number of ReadExReq miss ticks (Tick)
system.victimcache.ReadExReq.accesses::cpu.data         4032                       # number of ReadExReq accesses(hits+misses) (Count)
system.victimcache.ReadExReq.accesses::total         4032                       # number of ReadExReq accesses(hits+misses) (Count)
system.victimcache.ReadExReq.missRate::cpu.data     0.632192                       # miss rate for ReadExReq accesses (Ratio)
system.victimcache.ReadExReq.missRate::total     0.632192                       # miss rate for ReadExReq accesses (Ratio)
system.victimcache.ReadExReq.avgMissLatency::cpu.data 43148.685759                       # average ReadExReq miss latency ((Tick/Count))
system.victimcache.ReadExReq.avgMissLatency::total 43148.685759                       # average ReadExReq miss latency ((Tick/Count))
system.victimcache.ReadExReq.mshrMisses::cpu.data         2549                       # number of ReadExReq MSHR misses (Count)
system.victimcache.ReadExReq.mshrMisses::total         2549                       # number of ReadExReq MSHR misses (Count)
system.victimcache.ReadExReq.mshrMissLatency::cpu.data    109986000                       # number of ReadExReq MSHR miss ticks (Tick)
system.victimcache.ReadExReq.mshrMissLatency::total    109986000                       # number of ReadExReq MSHR miss ticks (Tick)
system.victimcache.ReadExReq.mshrMissRate::cpu.data     0.632192                       # mshr miss rate for ReadExReq accesses (Ratio)
system.victimcache.ReadExReq.mshrMissRate::total     0.632192                       # mshr miss rate for ReadExReq accesses (Ratio)
system.victimcache.ReadExReq.avgMshrMissLatency::cpu.data 43148.685759                       # average ReadExReq mshr miss latency ((Tick/Count))
system.victimcache.ReadExReq.avgMshrMissLatency::total 43148.685759                       # average ReadExReq mshr miss latency ((Tick/Count))
system.victimcache.ReadSharedReq.hits::cpu.data         1105                       # number of ReadSharedReq hits (Count)
system.victimcache.ReadSharedReq.hits::total         1105                       # number of ReadSharedReq hits (Count)
system.victimcache.ReadSharedReq.misses::cpu.data          990                       # number of ReadSharedReq misses (Count)
system.victimcache.ReadSharedReq.misses::total          990                       # number of ReadSharedReq misses (Count)
system.victimcache.ReadSharedReq.missLatency::cpu.data     47013000                       # number of ReadSharedReq miss ticks (Tick)
system.victimcache.ReadSharedReq.missLatency::total     47013000                       # number of ReadSharedReq miss ticks (Tick)
system.victimcache.ReadSharedReq.accesses::cpu.data         2095                       # number of ReadSharedReq accesses(hits+misses) (Count)
system.victimcache.ReadSharedReq.accesses::total         2095                       # number of ReadSharedReq accesses(hits+misses) (Count)
system.victimcache.ReadSharedReq.missRate::cpu.data     0.472554                       # miss rate for ReadSharedReq accesses (Ratio)
system.victimcache.ReadSharedReq.missRate::total     0.472554                       # miss rate for ReadSharedReq accesses (Ratio)
system.victimcache.ReadSharedReq.avgMissLatency::cpu.data 47487.878788                       # average ReadSharedReq miss latency ((Tick/Count))
system.victimcache.ReadSharedReq.avgMissLatency::total 47487.878788                       # average ReadSharedReq miss latency ((Tick/Count))
system.victimcache.ReadSharedReq.mshrMisses::cpu.data          990                       # number of ReadSharedReq MSHR misses (Count)
system.victimcache.ReadSharedReq.mshrMisses::total          990                       # number of ReadSharedReq MSHR misses (Count)
system.victimcache.ReadSharedReq.mshrMissLatency::cpu.data     47013000                       # number of ReadSharedReq MSHR miss ticks (Tick)
system.victimcache.ReadSharedReq.mshrMissLatency::total     47013000                       # number of ReadSharedReq MSHR miss ticks (Tick)
system.victimcache.ReadSharedReq.mshrMissRate::cpu.data     0.472554                       # mshr miss rate for ReadSharedReq accesses (Ratio)
system.victimcache.ReadSharedReq.mshrMissRate::total     0.472554                       # mshr miss rate for ReadSharedReq accesses (Ratio)
system.victimcache.ReadSharedReq.avgMshrMissLatency::cpu.data 47487.878788                       # average ReadSharedReq mshr miss latency ((Tick/Count))
system.victimcache.ReadSharedReq.avgMshrMissLatency::total 47487.878788                       # average ReadSharedReq mshr miss latency ((Tick/Count))
system.victimcache.UpgradeReq.misses::cpu.data           38                       # number of UpgradeReq misses (Count)
system.victimcache.UpgradeReq.misses::total           38                       # number of UpgradeReq misses (Count)
system.victimcache.UpgradeReq.accesses::cpu.data           38                       # number of UpgradeReq accesses(hits+misses) (Count)
system.victimcache.UpgradeReq.accesses::total           38                       # number of UpgradeReq accesses(hits+misses) (Count)
system.victimcache.UpgradeReq.missRate::cpu.data            1                       # miss rate for UpgradeReq accesses (Ratio)
system.victimcache.UpgradeReq.missRate::total            1                       # miss rate for UpgradeReq accesses (Ratio)
system.victimcache.UpgradeReq.mshrMisses::cpu.data           38                       # number of UpgradeReq MSHR misses (Count)
system.victimcache.UpgradeReq.mshrMisses::total           38                       # number of UpgradeReq MSHR misses (Count)
system.victimcache.UpgradeReq.mshrMissLatency::cpu.data      2016000                       # number of UpgradeReq MSHR miss ticks (Tick)
system.victimcache.UpgradeReq.mshrMissLatency::total      2016000                       # number of UpgradeReq MSHR miss ticks (Tick)
system.victimcache.UpgradeReq.mshrMissRate::cpu.data            1                       # mshr miss rate for UpgradeReq accesses (Ratio)
system.victimcache.UpgradeReq.mshrMissRate::total            1                       # mshr miss rate for UpgradeReq accesses (Ratio)
system.victimcache.UpgradeReq.avgMshrMissLatency::cpu.data 53052.631579                       # average UpgradeReq mshr miss latency ((Tick/Count))
system.victimcache.UpgradeReq.avgMshrMissLatency::total 53052.631579                       # average UpgradeReq mshr miss latency ((Tick/Count))
system.victimcache.WritebackClean.hits::writebacks         1133                       # number of WritebackClean hits (Count)
system.victimcache.WritebackClean.hits::total         1133                       # number of WritebackClean hits (Count)
system.victimcache.WritebackClean.accesses::writebacks         1133                       # number of WritebackClean accesses(hits+misses) (Count)
system.victimcache.WritebackClean.accesses::total         1133                       # number of WritebackClean accesses(hits+misses) (Count)
system.victimcache.WritebackDirty.hits::writebacks         4755                       # number of WritebackDirty hits (Count)
system.victimcache.WritebackDirty.hits::total         4755                       # number of WritebackDirty hits (Count)
system.victimcache.WritebackDirty.accesses::writebacks         4755                       # number of WritebackDirty accesses(hits+misses) (Count)
system.victimcache.WritebackDirty.accesses::total         4755                       # number of WritebackDirty accesses(hits+misses) (Count)
system.victimcache.power_state.pwrStateResidencyTicks::UNDEFINED    177797000                       # Cumulative time (in ticks) in various power states (Tick)
system.victimcache.tags.tagsInUse           11.433191                       # Average ticks per tags in use ((Tick/Count))
system.victimcache.tags.totalRefs                8606                       # Total number of references to valid blocks. (Count)
system.victimcache.tags.sampledRefs              5758                       # Sample count of references to valid blocks. (Count)
system.victimcache.tags.avgRefs              1.494616                       # Average number of references to valid blocks. ((Count/Count))
system.victimcache.tags.warmupTick           49468000                       # The tick when the warmup percentage was hit. (Tick)
system.victimcache.tags.occupancies::writebacks    11.433191                       # Average occupied blocks per tick, per requestor ((Count/Tick))
system.victimcache.tags.avgOccs::writebacks     0.714574                       # Average percentage of cache occupancy ((Ratio/Tick))
system.victimcache.tags.avgOccs::total       0.714574                       # Average percentage of cache occupancy ((Ratio/Tick))
system.victimcache.tags.occupanciesTaskId::1024           16                       # Occupied blocks per task id (Count)
system.victimcache.tags.ageTaskId_1024::0           16                       # Occupied blocks per task id, per block age (Count)
system.victimcache.tags.ratioOccsTaskId::1024            1                       # Ratio of occupied blocks and all blocks, per task id (Ratio)
system.victimcache.tags.tagAccesses            198606                       # Number of tag accesses (Count)
system.victimcache.tags.dataAccesses           198606                       # Number of data accesses (Count)
system.victimcache.tags.power_state.pwrStateResidencyTicks::UNDEFINED    177797000                       # Cumulative time (in ticks) in various power states (Tick)
system.workload.inst.arm                            0                       # number of arm instructions executed (Count)
system.workload.inst.quiesce                        0                       # number of quiesce instructions executed (Count)

---------- End Simulation Statistics   ----------
