
---------- Begin Simulation Statistics ----------
simSeconds                                   0.056454                       # Number of seconds simulated (Second)
simTicks                                  56453959000                       # Number of ticks simulated (Tick)
finalTick                                 56453959000                       # Number of ticks from beginning of simulation (restored from checkpoints and never reset) (Tick)
simFreq                                  1000000000000                       # The number of ticks per simulated second ((Tick/Second))
hostSeconds                                    280.79                       # Real time elapsed on the host (Second)
hostTickRate                                201054024                       # The number of ticks simulated per host second (ticks/s) ((Tick/Second))
hostMemory                                     702080                       # Number of bytes of host memory used (Byte)
simInsts                                     48413712                       # Number of instructions simulated (Count)
simOps                                       86500844                       # Number of ops (including micro ops) simulated (Count)
hostInstRate                                   172420                       # Simulator instruction rate (inst/s) ((Count/Second))
hostOpRate                                     308062                       # Simulator op (including micro ops) rate (op/s) ((Count/Second))
system.clk_domain.clock                          1000                       # Clock period in ticks (Tick)
system.clk_domain.voltage_domain.voltage            1                       # Voltage in Volts (Volt)
system.cpu.numCycles                         56453960                       # Number of cpu cycles simulated (Cycle)
system.cpu.numWorkItemsStarted                      0                       # Number of work items this cpu started (Count)
system.cpu.numWorkItemsCompleted                    0                       # Number of work items this cpu completed (Count)
system.cpu.instsAdded                        97760070                       # Number of instructions added to the IQ (excludes non-spec) (Count)
system.cpu.nonSpecInstsAdded                   917792                       # Number of non-speculative instructions added to the IQ (Count)
system.cpu.instsIssued                       95019456                       # Number of instructions issued (Count)
system.cpu.squashedInstsIssued                   9045                       # Number of squashed instructions issued (Count)
system.cpu.squashedInstsExamined             12177012                       # Number of squashed instructions iterated over during squash; mainly for profiling (Count)
system.cpu.squashedOperandsExamined          14426328                       # Number of squashed operands that are examined and possibly removed from graph (Count)
system.cpu.squashedNonSpecRemoved                 126                       # Number of squashed non-spec instructions that were removed (Count)
system.cpu.numIssuedDist::samples            56348287                       # Number of insts issued each cycle (Count)
system.cpu.numIssuedDist::mean               1.686288                       # Number of insts issued each cycle (Count)
system.cpu.numIssuedDist::stdev              2.036542                       # Number of insts issued each cycle (Count)
system.cpu.numIssuedDist::underflows                0      0.00%      0.00% # Number of insts issued each cycle (Count)
system.cpu.numIssuedDist::0                  24824397     44.06%     44.06% # Number of insts issued each cycle (Count)
system.cpu.numIssuedDist::1                   9522668     16.90%     60.95% # Number of insts issued each cycle (Count)
system.cpu.numIssuedDist::2                   5469448      9.71%     70.66% # Number of insts issued each cycle (Count)
system.cpu.numIssuedDist::3                   4782818      8.49%     79.15% # Number of insts issued each cycle (Count)
system.cpu.numIssuedDist::4                   3362242      5.97%     85.12% # Number of insts issued each cycle (Count)
system.cpu.numIssuedDist::5                   4808387      8.53%     93.65% # Number of insts issued each cycle (Count)
system.cpu.numIssuedDist::6                   2545885      4.52%     98.17% # Number of insts issued each cycle (Count)
system.cpu.numIssuedDist::7                    816311      1.45%     99.62% # Number of insts issued each cycle (Count)
system.cpu.numIssuedDist::8                    216131      0.38%    100.00% # Number of insts issued each cycle (Count)
system.cpu.numIssuedDist::overflows                 0      0.00%    100.00% # Number of insts issued each cycle (Count)
system.cpu.numIssuedDist::min_value                 0                       # Number of insts issued each cycle (Count)
system.cpu.numIssuedDist::max_value                 8                       # Number of insts issued each cycle (Count)
system.cpu.numIssuedDist::total              56348287                       # Number of insts issued each cycle (Count)
system.cpu.statFuBusy::No_OpClass                   0      0.00%      0.00% # attempts to use FU when none available (Count)
system.cpu.statFuBusy::IntAlu                   82491     25.28%     25.28% # attempts to use FU when none available (Count)
system.cpu.statFuBusy::IntMult                      0      0.00%     25.28% # attempts to use FU when none available (Count)
system.cpu.statFuBusy::IntDiv                       0      0.00%     25.28% # attempts to use FU when none available (Count)
system.cpu.statFuBusy::FloatAdd                     0      0.00%     25.28% # attempts to use FU when none available (Count)
system.cpu.statFuBusy::FloatCmp                     0      0.00%     25.28% # attempts to use FU when none available (Count)
system.cpu.statFuBusy::FloatCvt                     0      0.00%     25.28% # attempts to use FU when none available (Count)
system.cpu.statFuBusy::FloatMult                    0      0.00%     25.28% # attempts to use FU when none available (Count)
system.cpu.statFuBusy::FloatMultAcc                 0      0.00%     25.28% # attempts to use FU when none available (Count)
system.cpu.statFuBusy::FloatDiv                     0      0.00%     25.28% # attempts to use FU when none available (Count)
system.cpu.statFuBusy::FloatMisc                    0      0.00%     25.28% # attempts to use FU when none available (Count)
system.cpu.statFuBusy::FloatSqrt                    0      0.00%     25.28% # attempts to use FU when none available (Count)
system.cpu.statFuBusy::SimdAdd                      4      0.00%     25.28% # attempts to use FU when none available (Count)
system.cpu.statFuBusy::SimdAddAcc                   0      0.00%     25.28% # attempts to use FU when none available (Count)
system.cpu.statFuBusy::SimdAlu                     38      0.01%     25.30% # attempts to use FU when none available (Count)
system.cpu.statFuBusy::SimdCmp                      0      0.00%     25.30% # attempts to use FU when none available (Count)
system.cpu.statFuBusy::SimdCvt                   1008      0.31%     25.61% # attempts to use FU when none available (Count)
system.cpu.statFuBusy::SimdMisc                    12      0.00%     25.61% # attempts to use FU when none available (Count)
system.cpu.statFuBusy::SimdMult                     0      0.00%     25.61% # attempts to use FU when none available (Count)
system.cpu.statFuBusy::SimdMultAcc                  0      0.00%     25.61% # attempts to use FU when none available (Count)
system.cpu.statFuBusy::SimdShift                   11      0.00%     25.61% # attempts to use FU when none available (Count)
system.cpu.statFuBusy::SimdShiftAcc                 0      0.00%     25.61% # attempts to use FU when none available (Count)
system.cpu.statFuBusy::SimdDiv                      0      0.00%     25.61% # attempts to use FU when none available (Count)
system.cpu.statFuBusy::SimdSqrt                     0      0.00%     25.61% # attempts to use FU when none available (Count)
system.cpu.statFuBusy::SimdFloatAdd                 0      0.00%     25.61% # attempts to use FU when none available (Count)
system.cpu.statFuBusy::SimdFloatAlu                 0      0.00%     25.61% # attempts to use FU when none available (Count)
system.cpu.statFuBusy::SimdFloatCmp                 0      0.00%     25.61% # attempts to use FU when none available (Count)
system.cpu.statFuBusy::SimdFloatCvt                 0      0.00%     25.61% # attempts to use FU when none available (Count)
system.cpu.statFuBusy::SimdFloatDiv                 0      0.00%     25.61% # attempts to use FU when none available (Count)
system.cpu.statFuBusy::SimdFloatMisc                0      0.00%     25.61% # attempts to use FU when none available (Count)
system.cpu.statFuBusy::SimdFloatMult                0      0.00%     25.61% # attempts to use FU when none available (Count)
system.cpu.statFuBusy::SimdFloatMultAcc             0      0.00%     25.61% # attempts to use FU when none available (Count)
system.cpu.statFuBusy::SimdFloatSqrt                0      0.00%     25.61% # attempts to use FU when none available (Count)
system.cpu.statFuBusy::SimdReduceAdd                0      0.00%     25.61% # attempts to use FU when none available (Count)
system.cpu.statFuBusy::SimdReduceAlu                0      0.00%     25.61% # attempts to use FU when none available (Count)
system.cpu.statFuBusy::SimdReduceCmp                0      0.00%     25.61% # attempts to use FU when none available (Count)
system.cpu.statFuBusy::SimdFloatReduceAdd            0      0.00%     25.61% # attempts to use FU when none available (Count)
system.cpu.statFuBusy::SimdFloatReduceCmp            0      0.00%     25.61% # attempts to use FU when none available (Count)
system.cpu.statFuBusy::SimdAes                      0      0.00%     25.61% # attempts to use FU when none available (Count)
system.cpu.statFuBusy::SimdAesMix                   0      0.00%     25.61% # attempts to use FU when none available (Count)
system.cpu.statFuBusy::SimdSha1Hash                 0      0.00%     25.61% # attempts to use FU when none available (Count)
system.cpu.statFuBusy::SimdSha1Hash2                0      0.00%     25.61% # attempts to use FU when none available (Count)
system.cpu.statFuBusy::SimdSha256Hash               0      0.00%     25.61% # attempts to use FU when none available (Count)
system.cpu.statFuBusy::SimdSha256Hash2              0      0.00%     25.61% # attempts to use FU when none available (Count)
system.cpu.statFuBusy::SimdShaSigma2                0      0.00%     25.61% # attempts to use FU when none available (Count)
system.cpu.statFuBusy::SimdShaSigma3                0      0.00%     25.61% # attempts to use FU when none available (Count)
system.cpu.statFuBusy::SimdPredAlu                  0      0.00%     25.61% # attempts to use FU when none available (Count)
system.cpu.statFuBusy::MemRead                 169766     52.03%     77.65% # attempts to use FU when none available (Count)
system.cpu.statFuBusy::MemWrite                 72556     22.24%     99.88% # attempts to use FU when none available (Count)
system.cpu.statFuBusy::FloatMemRead               159      0.05%     99.93% # attempts to use FU when none available (Count)
system.cpu.statFuBusy::FloatMemWrite              220      0.07%    100.00% # attempts to use FU when none available (Count)
system.cpu.statFuBusy::IprAccess                    0      0.00%    100.00% # attempts to use FU when none available (Count)
system.cpu.statFuBusy::InstPrefetch                 0      0.00%    100.00% # attempts to use FU when none available (Count)
system.cpu.statIssuedInstType_0::No_OpClass      1595024      1.68%      1.68% # Number of instructions issued per FU type, per thread (Count)
system.cpu.statIssuedInstType_0::IntAlu      55124555     58.01%     59.69% # Number of instructions issued per FU type, per thread (Count)
system.cpu.statIssuedInstType_0::IntMult         1932      0.00%     59.69% # Number of instructions issued per FU type, per thread (Count)
system.cpu.statIssuedInstType_0::IntDiv         37385      0.04%     59.73% # Number of instructions issued per FU type, per thread (Count)
system.cpu.statIssuedInstType_0::FloatAdd      2104431      2.21%     61.95% # Number of instructions issued per FU type, per thread (Count)
system.cpu.statIssuedInstType_0::FloatCmp            0      0.00%     61.95% # Number of instructions issued per FU type, per thread (Count)
system.cpu.statIssuedInstType_0::FloatCvt       262432      0.28%     62.22% # Number of instructions issued per FU type, per thread (Count)
system.cpu.statIssuedInstType_0::FloatMult       262144      0.28%     62.50% # Number of instructions issued per FU type, per thread (Count)
system.cpu.statIssuedInstType_0::FloatMultAcc            0      0.00%     62.50% # Number of instructions issued per FU type, per thread (Count)
system.cpu.statIssuedInstType_0::FloatDiv            0      0.00%     62.50% # Number of instructions issued per FU type, per thread (Count)
system.cpu.statIssuedInstType_0::FloatMisc            0      0.00%     62.50% # Number of instructions issued per FU type, per thread (Count)
system.cpu.statIssuedInstType_0::FloatSqrt            0      0.00%     62.50% # Number of instructions issued per FU type, per thread (Count)
system.cpu.statIssuedInstType_0::SimdAdd         7061      0.01%     62.51% # Number of instructions issued per FU type, per thread (Count)
system.cpu.statIssuedInstType_0::SimdAddAcc            0      0.00%     62.51% # Number of instructions issued per FU type, per thread (Count)
system.cpu.statIssuedInstType_0::SimdAlu       275486      0.29%     62.80% # Number of instructions issued per FU type, per thread (Count)
system.cpu.statIssuedInstType_0::SimdCmp            0      0.00%     62.80% # Number of instructions issued per FU type, per thread (Count)
system.cpu.statIssuedInstType_0::SimdCvt        14945      0.02%     62.81% # Number of instructions issued per FU type, per thread (Count)
system.cpu.statIssuedInstType_0::SimdMisc       406489      0.43%     63.24% # Number of instructions issued per FU type, per thread (Count)
system.cpu.statIssuedInstType_0::SimdMult            0      0.00%     63.24% # Number of instructions issued per FU type, per thread (Count)
system.cpu.statIssuedInstType_0::SimdMultAcc            0      0.00%     63.24% # Number of instructions issued per FU type, per thread (Count)
system.cpu.statIssuedInstType_0::SimdShift         1059      0.00%     63.24% # Number of instructions issued per FU type, per thread (Count)
system.cpu.statIssuedInstType_0::SimdShiftAcc            0      0.00%     63.24% # Number of instructions issued per FU type, per thread (Count)
system.cpu.statIssuedInstType_0::SimdDiv            0      0.00%     63.24% # Number of instructions issued per FU type, per thread (Count)
system.cpu.statIssuedInstType_0::SimdSqrt            0      0.00%     63.24% # Number of instructions issued per FU type, per thread (Count)
system.cpu.statIssuedInstType_0::SimdFloatAdd       655370      0.69%     63.93% # Number of instructions issued per FU type, per thread (Count)
system.cpu.statIssuedInstType_0::SimdFloatAlu            0      0.00%     63.93% # Number of instructions issued per FU type, per thread (Count)
system.cpu.statIssuedInstType_0::SimdFloatCmp            0      0.00%     63.93% # Number of instructions issued per FU type, per thread (Count)
system.cpu.statIssuedInstType_0::SimdFloatCvt       393272      0.41%     64.35% # Number of instructions issued per FU type, per thread (Count)
system.cpu.statIssuedInstType_0::SimdFloatDiv       131078      0.14%     64.48% # Number of instructions issued per FU type, per thread (Count)
system.cpu.statIssuedInstType_0::SimdFloatMisc            0      0.00%     64.48% # Number of instructions issued per FU type, per thread (Count)
system.cpu.statIssuedInstType_0::SimdFloatMult       458757      0.48%     64.97% # Number of instructions issued per FU type, per thread (Count)
system.cpu.statIssuedInstType_0::SimdFloatMultAcc            0      0.00%     64.97% # Number of instructions issued per FU type, per thread (Count)
system.cpu.statIssuedInstType_0::SimdFloatSqrt            0      0.00%     64.97% # Number of instructions issued per FU type, per thread (Count)
system.cpu.statIssuedInstType_0::SimdReduceAdd            0      0.00%     64.97% # Number of instructions issued per FU type, per thread (Count)
system.cpu.statIssuedInstType_0::SimdReduceAlu            0      0.00%     64.97% # Number of instructions issued per FU type, per thread (Count)
system.cpu.statIssuedInstType_0::SimdReduceCmp            0      0.00%     64.97% # Number of instructions issued per FU type, per thread (Count)
system.cpu.statIssuedInstType_0::SimdFloatReduceAdd            0      0.00%     64.97% # Number of instructions issued per FU type, per thread (Count)
system.cpu.statIssuedInstType_0::SimdFloatReduceCmp            0      0.00%     64.97% # Number of instructions issued per FU type, per thread (Count)
system.cpu.statIssuedInstType_0::SimdAes            0      0.00%     64.97% # Number of instructions issued per FU type, per thread (Count)
system.cpu.statIssuedInstType_0::SimdAesMix            0      0.00%     64.97% # Number of instructions issued per FU type, per thread (Count)
system.cpu.statIssuedInstType_0::SimdSha1Hash            0      0.00%     64.97% # Number of instructions issued per FU type, per thread (Count)
system.cpu.statIssuedInstType_0::SimdSha1Hash2            0      0.00%     64.97% # Number of instructions issued per FU type, per thread (Count)
system.cpu.statIssuedInstType_0::SimdSha256Hash            0      0.00%     64.97% # Number of instructions issued per FU type, per thread (Count)
system.cpu.statIssuedInstType_0::SimdSha256Hash2            0      0.00%     64.97% # Number of instructions issued per FU type, per thread (Count)
system.cpu.statIssuedInstType_0::SimdShaSigma2            0      0.00%     64.97% # Number of instructions issued per FU type, per thread (Count)
system.cpu.statIssuedInstType_0::SimdShaSigma3            0      0.00%     64.97% # Number of instructions issued per FU type, per thread (Count)
system.cpu.statIssuedInstType_0::SimdPredAlu            0      0.00%     64.97% # Number of instructions issued per FU type, per thread (Count)
system.cpu.statIssuedInstType_0::MemRead     19403144     20.42%     85.39% # Number of instructions issued per FU type, per thread (Count)
system.cpu.statIssuedInstType_0::MemWrite      9724437     10.23%     95.62% # Number of instructions issued per FU type, per thread (Count)
system.cpu.statIssuedInstType_0::FloatMemRead      2706185      2.85%     98.47% # Number of instructions issued per FU type, per thread (Count)
system.cpu.statIssuedInstType_0::FloatMemWrite      1454270      1.53%    100.00% # Number of instructions issued per FU type, per thread (Count)
system.cpu.statIssuedInstType_0::IprAccess            0      0.00%    100.00% # Number of instructions issued per FU type, per thread (Count)
system.cpu.statIssuedInstType_0::InstPrefetch            0      0.00%    100.00% # Number of instructions issued per FU type, per thread (Count)
system.cpu.statIssuedInstType_0::total       95019456                       # Number of instructions issued per FU type, per thread (Count)
system.cpu.issueRate                         1.683132                       # Inst issue rate ((Count/Cycle))
system.cpu.fuBusy                              326265                       # FU busy when requested (Count)
system.cpu.fuBusyRate                        0.003434                       # FU busy rate (busy events/executed inst) ((Count/Count))
system.cpu.intInstQueueReads                226088918                       # Number of integer instruction queue reads (Count)
system.cpu.intInstQueueWrites               100500317                       # Number of integer instruction queue writes (Count)
system.cpu.intInstQueueWakeupAccesses        84033359                       # Number of integer instruction queue wakeup accesses (Count)
system.cpu.fpInstQueueReads                  20633591                       # Number of floating instruction queue reads (Count)
system.cpu.fpInstQueueWrites                 10357573                       # Number of floating instruction queue writes (Count)
system.cpu.fpInstQueueWakeupAccesses         10312962                       # Number of floating instruction queue wakeup accesses (Count)
system.cpu.vecInstQueueReads                        0                       # Number of vector instruction queue reads (Count)
system.cpu.vecInstQueueWrites                       0                       # Number of vector instruction queue writes (Count)
system.cpu.vecInstQueueWakeupAccesses               0                       # Number of vector instruction queue wakeup accesses (Count)
system.cpu.intAluAccesses                    83433231                       # Number of integer alu accesses (Count)
system.cpu.fpAluAccesses                     10317466                       # Number of floating point alu accesses (Count)
system.cpu.vecAluAccesses                           0                       # Number of vector alu accesses (Count)
system.cpu.idleCycles                               0                       # Number of cycles IEW is idle (Cycle)
system.cpu.squashCycles                        149868                       # Number of cycles IEW is squashing (Cycle)
system.cpu.blockCycles                        1879747                       # Number of cycles IEW is blocking (Cycle)
system.cpu.unblockCycles                        21709                       # Number of cycles IEW is unblocking (Cycle)
system.cpu.dispatchedInsts                   98677862                       # Number of instructions dispatched to IQ (Count)
system.cpu.dispSquashedInsts                      570                       # Number of squashed instructions skipped by dispatch (Count)
system.cpu.dispLoadInsts                     22844980                       # Number of dispatched load instructions (Count)
system.cpu.dispStoreInsts                    11538468                       # Number of dispatched store instructions (Count)
system.cpu.dispNonSpecInsts                    917790                       # Number of dispatched non-speculative instructions (Count)
system.cpu.iqFullEvents                          9178                       # Number of times the IQ has become full, causing a stall (Count)
system.cpu.lsqFullEvents                         9093                       # Number of times the LSQ has become full, causing a stall (Count)
system.cpu.memOrderViolationEvents               3109                       # Number of memory order violations (Count)
system.cpu.predictedTakenIncorrect              72622                       # Number of branches that were predicted taken incorrectly (Count)
system.cpu.predictedNotTakenIncorrect           75973                       # Number of branches that were predicted not taken incorrectly (Count)
system.cpu.branchMispredicts                   148595                       # Number of branch mispredicts detected at execute (Count)
system.cpu.numInsts                          94580767                       # Number of executed instructions (Count)
system.cpu.numLoadInsts                      22010419                       # Number of load instructions executed (Count)
system.cpu.numSquashedInsts                    438689                       # Number of squashed instructions skipped in execute (Count)
system.cpu.numSwp                                   0                       # Number of swp insts executed (Count)
system.cpu.numNop                                   0                       # Number of nop insts executed (Count)
system.cpu.numRefs                           33051484                       # Number of memory reference insts executed (Count)
system.cpu.numBranches                        7109933                       # Number of branches executed (Count)
system.cpu.numStoreInsts                     11041065                       # Number of stores executed (Count)
system.cpu.numRate                           1.675361                       # Inst execution rate ((Count/Cycle))
system.cpu.instsToCommit                     94471286                       # Cumulative count of insts sent to commit (Count)
system.cpu.writebackCount                    94346321                       # Cumulative count of insts written-back (Count)
system.cpu.producerInst                      67982762                       # Number of instructions producing a value (Count)
system.cpu.consumerInst                     110538875                       # Number of instructions consuming a value (Count)
system.cpu.wbRate                            1.671208                       # Insts written-back per cycle ((Count/Cycle))
system.cpu.wbFanout                          0.615012                       # Average fanout of values written-back ((Count/Count))
system.cpu.timesIdled                            1532                       # Number of times that the entire CPU went into an idle state and unscheduled itself (Count)
system.cpu.idleCycles                          105673                       # Total number of cycles that the CPU has spent unscheduled due to idling (Cycle)
system.cpu.committedInsts                    48413712                       # Number of Instructions Simulated (Count)
system.cpu.committedOps                      86500844                       # Number of Ops (including micro ops) Simulated (Count)
system.cpu.cpi                               1.166074                       # CPI: Cycles Per Instruction ((Cycle/Count))
system.cpu.totalCpi                          1.166074                       # CPI: Total CPI of All Threads ((Cycle/Count))
system.cpu.ipc                               0.857579                       # IPC: Instructions Per Cycle ((Count/Cycle))
system.cpu.totalIpc                          0.857579                       # IPC: Total IPC of All Threads ((Count/Cycle))
system.cpu.intRegfileReads                  147714287                       # Number of integer regfile reads (Count)
system.cpu.intRegfileWrites                  65808508                       # Number of integer regfile writes (Count)
system.cpu.fpRegfileReads                    10154337                       # Number of floating regfile reads (Count)
system.cpu.fpRegfileWrites                    8327639                       # Number of floating regfile writes (Count)
system.cpu.ccRegfileReads                    19819226                       # number of cc regfile reads (Count)
system.cpu.ccRegfileWrites                   20165793                       # number of cc regfile writes (Count)
system.cpu.miscRegfileReads                  48457691                       # number of misc regfile reads (Count)
system.cpu.miscRegfileWrites                  1835170                       # number of misc regfile writes (Count)
system.cpu.MemDepUnit__0.insertedLoads       22844980                       # Number of loads inserted to the mem dependence unit. (Count)
system.cpu.MemDepUnit__0.insertedStores      11538468                       # Number of stores inserted to the mem dependence unit. (Count)
system.cpu.MemDepUnit__0.conflictingLoads      9793190                       # Number of conflicting loads. (Count)
system.cpu.MemDepUnit__0.conflictingStores      2197581                       # Number of conflicting stores. (Count)
system.cpu.MemDepUnit__1.insertedLoads              0                       # Number of loads inserted to the mem dependence unit. (Count)
system.cpu.MemDepUnit__1.insertedStores             0                       # Number of stores inserted to the mem dependence unit. (Count)
system.cpu.MemDepUnit__1.conflictingLoads            0                       # Number of conflicting loads. (Count)
system.cpu.MemDepUnit__1.conflictingStores            0                       # Number of conflicting stores. (Count)
system.cpu.MemDepUnit__2.insertedLoads              0                       # Number of loads inserted to the mem dependence unit. (Count)
system.cpu.MemDepUnit__2.insertedStores             0                       # Number of stores inserted to the mem dependence unit. (Count)
system.cpu.MemDepUnit__2.conflictingLoads            0                       # Number of conflicting loads. (Count)
system.cpu.MemDepUnit__2.conflictingStores            0                       # Number of conflicting stores. (Count)
system.cpu.MemDepUnit__3.insertedLoads              0                       # Number of loads inserted to the mem dependence unit. (Count)
system.cpu.MemDepUnit__3.insertedStores             0                       # Number of stores inserted to the mem dependence unit. (Count)
system.cpu.MemDepUnit__3.conflictingLoads            0                       # Number of conflicting loads. (Count)
system.cpu.MemDepUnit__3.conflictingStores            0                       # Number of conflicting stores. (Count)
system.cpu.branchPred.lookups                 7654591                       # Number of BP lookups (Count)
system.cpu.branchPred.condPredicted           2832070                       # Number of conditional branches predicted (Count)
system.cpu.branchPred.condIncorrect            146479                       # Number of conditional branches incorrect (Count)
system.cpu.branchPred.BTBLookups              4338211                       # Number of BTB lookups (Count)
system.cpu.branchPred.BTBHits                 4335470                       # Number of BTB hits (Count)
system.cpu.branchPred.BTBHitRatio            0.999368                       # BTB Hit Ratio (Ratio)
system.cpu.branchPred.RASUsed                 1592439                       # Number of times the RAS was used to get a target. (Count)
system.cpu.branchPred.RASIncorrect                 10                       # Number of incorrect RAS predictions. (Count)
system.cpu.branchPred.indirectLookups            6147                       # Number of indirect predictor lookups. (Count)
system.cpu.branchPred.indirectHits               4020                       # Number of indirect target hits. (Count)
system.cpu.branchPred.indirectMisses             2127                       # Number of indirect misses. (Count)
system.cpu.branchPred.indirectMispredicted          620                       # Number of mispredicted indirect branches. (Count)
system.cpu.commit.commitSquashedInsts        12173250                       # The number of squashed insts skipped by commit (Count)
system.cpu.commit.commitNonSpecStalls          917666                       # The number of times commit has been forced to stall to communicate backwards (Count)
system.cpu.commit.branchMispredicts            146493                       # The number of times a branch was mispredicted (Count)
system.cpu.commit.numCommittedDist::samples     54760659                       # Number of insts commited each cycle (Count)
system.cpu.commit.numCommittedDist::mean     1.579617                       # Number of insts commited each cycle (Count)
system.cpu.commit.numCommittedDist::stdev     2.394287                       # Number of insts commited each cycle (Count)
system.cpu.commit.numCommittedDist::underflows            0      0.00%      0.00% # Number of insts commited each cycle (Count)
system.cpu.commit.numCommittedDist::0        26573980     48.53%     48.53% # Number of insts commited each cycle (Count)
system.cpu.commit.numCommittedDist::1        11985765     21.89%     70.42% # Number of insts commited each cycle (Count)
system.cpu.commit.numCommittedDist::2         4423931      8.08%     78.49% # Number of insts commited each cycle (Count)
system.cpu.commit.numCommittedDist::3         3721073      6.80%     85.29% # Number of insts commited each cycle (Count)
system.cpu.commit.numCommittedDist::4         1016517      1.86%     87.15% # Number of insts commited each cycle (Count)
system.cpu.commit.numCommittedDist::5         1294977      2.36%     89.51% # Number of insts commited each cycle (Count)
system.cpu.commit.numCommittedDist::6          495750      0.91%     90.42% # Number of insts commited each cycle (Count)
system.cpu.commit.numCommittedDist::7         1000783      1.83%     92.24% # Number of insts commited each cycle (Count)
system.cpu.commit.numCommittedDist::8         4247883      7.76%    100.00% # Number of insts commited each cycle (Count)
system.cpu.commit.numCommittedDist::overflows            0      0.00%    100.00% # Number of insts commited each cycle (Count)
system.cpu.commit.numCommittedDist::min_value            0                       # Number of insts commited each cycle (Count)
system.cpu.commit.numCommittedDist::max_value            8                       # Number of insts commited each cycle (Count)
system.cpu.commit.numCommittedDist::total     54760659                       # Number of insts commited each cycle (Count)
system.cpu.commit.instsCommitted             48413712                       # Number of instructions committed (Count)
system.cpu.commit.opsCommitted               86500844                       # Number of ops (including micro ops) committed (Count)
system.cpu.commit.memRefs                    30064869                       # Number of memory references committed (Count)
system.cpu.commit.loads                      19316023                       # Number of loads committed (Count)
system.cpu.commit.amos                              0                       # Number of atomic instructions committed (Count)
system.cpu.commit.membars                           0                       # Number of memory barriers committed (Count)
system.cpu.commit.branches                    6508487                       # Number of branches committed (Count)
system.cpu.commit.vectorInstructions                0                       # Number of committed Vector instructions. (Count)
system.cpu.commit.floating                   10299427                       # Number of committed floating point instructions. (Count)
system.cpu.commit.integer                    79290112                       # Number of committed integer instructions. (Count)
system.cpu.commit.functionCalls               1585659                       # Number of function calls committed. (Count)
system.cpu.commit.committedInstType_0::No_OpClass      1587380      1.84%      1.84% # Class of committed instruction (Count)
system.cpu.commit.committedInstType_0::IntAlu     49848428     57.63%     59.46% # Class of committed instruction (Count)
system.cpu.commit.committedInstType_0::IntMult         1915      0.00%     59.46% # Class of committed instruction (Count)
system.cpu.commit.committedInstType_0::IntDiv        35091      0.04%     59.51% # Class of committed instruction (Count)
system.cpu.commit.committedInstType_0::FloatAdd      2102037      2.43%     61.94% # Class of committed instruction (Count)
system.cpu.commit.committedInstType_0::FloatCmp            0      0.00%     61.94% # Class of committed instruction (Count)
system.cpu.commit.committedInstType_0::FloatCvt       262432      0.30%     62.24% # Class of committed instruction (Count)
system.cpu.commit.committedInstType_0::FloatMult       262144      0.30%     62.54% # Class of committed instruction (Count)
system.cpu.commit.committedInstType_0::FloatMultAcc            0      0.00%     62.54% # Class of committed instruction (Count)
system.cpu.commit.committedInstType_0::FloatDiv            0      0.00%     62.54% # Class of committed instruction (Count)
system.cpu.commit.committedInstType_0::FloatMisc            0      0.00%     62.54% # Class of committed instruction (Count)
system.cpu.commit.committedInstType_0::FloatSqrt            0      0.00%     62.54% # Class of committed instruction (Count)
system.cpu.commit.committedInstType_0::SimdAdd         6484      0.01%     62.55% # Class of committed instruction (Count)
system.cpu.commit.committedInstType_0::SimdAddAcc            0      0.00%     62.55% # Class of committed instruction (Count)
system.cpu.commit.committedInstType_0::SimdAlu       273297      0.32%     62.87% # Class of committed instruction (Count)
system.cpu.commit.committedInstType_0::SimdCmp            0      0.00%     62.87% # Class of committed instruction (Count)
system.cpu.commit.committedInstType_0::SimdCvt        13148      0.02%     62.88% # Class of committed instruction (Count)
system.cpu.commit.committedInstType_0::SimdMisc       404764      0.47%     63.35% # Class of committed instruction (Count)
system.cpu.commit.committedInstType_0::SimdMult            0      0.00%     63.35% # Class of committed instruction (Count)
system.cpu.commit.committedInstType_0::SimdMultAcc            0      0.00%     63.35% # Class of committed instruction (Count)
system.cpu.commit.committedInstType_0::SimdShift          453      0.00%     63.35% # Class of committed instruction (Count)
system.cpu.commit.committedInstType_0::SimdShiftAcc            0      0.00%     63.35% # Class of committed instruction (Count)
system.cpu.commit.committedInstType_0::SimdDiv            0      0.00%     63.35% # Class of committed instruction (Count)
system.cpu.commit.committedInstType_0::SimdSqrt            0      0.00%     63.35% # Class of committed instruction (Count)
system.cpu.commit.committedInstType_0::SimdFloatAdd       655360      0.76%     64.11% # Class of committed instruction (Count)
system.cpu.commit.committedInstType_0::SimdFloatAlu            0      0.00%     64.11% # Class of committed instruction (Count)
system.cpu.commit.committedInstType_0::SimdFloatCmp            0      0.00%     64.11% # Class of committed instruction (Count)
system.cpu.commit.committedInstType_0::SimdFloatCvt       393218      0.45%     64.56% # Class of committed instruction (Count)
system.cpu.commit.committedInstType_0::SimdFloatDiv       131072      0.15%     64.71% # Class of committed instruction (Count)
system.cpu.commit.committedInstType_0::SimdFloatMisc            0      0.00%     64.71% # Class of committed instruction (Count)
system.cpu.commit.committedInstType_0::SimdFloatMult       458752      0.53%     65.24% # Class of committed instruction (Count)
system.cpu.commit.committedInstType_0::SimdFloatMultAcc            0      0.00%     65.24% # Class of committed instruction (Count)
system.cpu.commit.committedInstType_0::SimdFloatSqrt            0      0.00%     65.24% # Class of committed instruction (Count)
system.cpu.commit.committedInstType_0::SimdReduceAdd            0      0.00%     65.24% # Class of committed instruction (Count)
system.cpu.commit.committedInstType_0::SimdReduceAlu            0      0.00%     65.24% # Class of committed instruction (Count)
system.cpu.commit.committedInstType_0::SimdReduceCmp            0      0.00%     65.24% # Class of committed instruction (Count)
system.cpu.commit.committedInstType_0::SimdFloatReduceAdd            0      0.00%     65.24% # Class of committed instruction (Count)
system.cpu.commit.committedInstType_0::SimdFloatReduceCmp            0      0.00%     65.24% # Class of committed instruction (Count)
system.cpu.commit.committedInstType_0::SimdAes            0      0.00%     65.24% # Class of committed instruction (Count)
system.cpu.commit.committedInstType_0::SimdAesMix            0      0.00%     65.24% # Class of committed instruction (Count)
system.cpu.commit.committedInstType_0::SimdSha1Hash            0      0.00%     65.24% # Class of committed instruction (Count)
system.cpu.commit.committedInstType_0::SimdSha1Hash2            0      0.00%     65.24% # Class of committed instruction (Count)
system.cpu.commit.committedInstType_0::SimdSha256Hash            0      0.00%     65.24% # Class of committed instruction (Count)
system.cpu.commit.committedInstType_0::SimdSha256Hash2            0      0.00%     65.24% # Class of committed instruction (Count)
system.cpu.commit.committedInstType_0::SimdShaSigma2            0      0.00%     65.24% # Class of committed instruction (Count)
system.cpu.commit.committedInstType_0::SimdShaSigma3            0      0.00%     65.24% # Class of committed instruction (Count)
system.cpu.commit.committedInstType_0::SimdPredAlu            0      0.00%     65.24% # Class of committed instruction (Count)
system.cpu.commit.committedInstType_0::MemRead     16614820     19.21%     84.45% # Class of committed instruction (Count)
system.cpu.commit.committedInstType_0::MemWrite      9295996     10.75%     95.20% # Class of committed instruction (Count)
system.cpu.commit.committedInstType_0::FloatMemRead      2701203      3.12%     98.32% # Class of committed instruction (Count)
system.cpu.commit.committedInstType_0::FloatMemWrite      1452850      1.68%    100.00% # Class of committed instruction (Count)
system.cpu.commit.committedInstType_0::IprAccess            0      0.00%    100.00% # Class of committed instruction (Count)
system.cpu.commit.committedInstType_0::InstPrefetch            0      0.00%    100.00% # Class of committed instruction (Count)
system.cpu.commit.committedInstType_0::total     86500844                       # Class of committed instruction (Count)
system.cpu.commit.commitEligibleSamples       4247883                       # number cycles where commit BW limit reached (Cycle)
system.cpu.dcache.demandHits::cpu.data       21146785                       # number of demand (read+write) hits (Count)
system.cpu.dcache.demandHits::total          21146785                       # number of demand (read+write) hits (Count)
system.cpu.dcache.overallHits::cpu.data      21146785                       # number of overall hits (Count)
system.cpu.dcache.overallHits::total         21146785                       # number of overall hits (Count)
system.cpu.dcache.demandMisses::cpu.data       194095                       # number of demand (read+write) misses (Count)
system.cpu.dcache.demandMisses::total          194095                       # number of demand (read+write) misses (Count)
system.cpu.dcache.overallMisses::cpu.data       194095                       # number of overall misses (Count)
system.cpu.dcache.overallMisses::total         194095                       # number of overall misses (Count)
system.cpu.dcache.demandMissLatency::cpu.data  19758399993                       # number of demand (read+write) miss ticks (Tick)
system.cpu.dcache.demandMissLatency::total  19758399993                       # number of demand (read+write) miss ticks (Tick)
system.cpu.dcache.overallMissLatency::cpu.data  19758399993                       # number of overall miss ticks (Tick)
system.cpu.dcache.overallMissLatency::total  19758399993                       # number of overall miss ticks (Tick)
system.cpu.dcache.demandAccesses::cpu.data     21340880                       # number of demand (read+write) accesses (Count)
system.cpu.dcache.demandAccesses::total      21340880                       # number of demand (read+write) accesses (Count)
system.cpu.dcache.overallAccesses::cpu.data     21340880                       # number of overall (read+write) accesses (Count)
system.cpu.dcache.overallAccesses::total     21340880                       # number of overall (read+write) accesses (Count)
system.cpu.dcache.demandMissRate::cpu.data     0.009095                       # miss rate for demand accesses (Ratio)
system.cpu.dcache.demandMissRate::total      0.009095                       # miss rate for demand accesses (Ratio)
system.cpu.dcache.overallMissRate::cpu.data     0.009095                       # miss rate for overall accesses (Ratio)
system.cpu.dcache.overallMissRate::total     0.009095                       # miss rate for overall accesses (Ratio)
system.cpu.dcache.demandAvgMissLatency::cpu.data 101797.573317                       # average overall miss latency ((Cycle/Count))
system.cpu.dcache.demandAvgMissLatency::total 101797.573317                       # average overall miss latency ((Cycle/Count))
system.cpu.dcache.overallAvgMissLatency::cpu.data 101797.573317                       # average overall miss latency ((Cycle/Count))
system.cpu.dcache.overallAvgMissLatency::total 101797.573317                       # average overall miss latency ((Cycle/Count))
system.cpu.dcache.blockedCycles::no_mshrs        19751                       # number of cycles access was blocked (Cycle)
system.cpu.dcache.blockedCycles::no_targets          152                       # number of cycles access was blocked (Cycle)
system.cpu.dcache.blockedCauses::no_mshrs          629                       # number of times access was blocked (Count)
system.cpu.dcache.blockedCauses::no_targets            2                       # number of times access was blocked (Count)
system.cpu.dcache.avgBlocked::no_mshrs      31.400636                       # average number of cycles each access was blocked ((Cycle/Count))
system.cpu.dcache.avgBlocked::no_targets           76                       # average number of cycles each access was blocked ((Cycle/Count))
system.cpu.dcache.writebacks::writebacks        59513                       # number of writebacks (Count)
system.cpu.dcache.writebacks::total             59513                       # number of writebacks (Count)
system.cpu.dcache.demandMshrHits::cpu.data       124695                       # number of demand (read+write) MSHR hits (Count)
system.cpu.dcache.demandMshrHits::total        124695                       # number of demand (read+write) MSHR hits (Count)
system.cpu.dcache.overallMshrHits::cpu.data       124695                       # number of overall MSHR hits (Count)
system.cpu.dcache.overallMshrHits::total       124695                       # number of overall MSHR hits (Count)
system.cpu.dcache.demandMshrMisses::cpu.data        69400                       # number of demand (read+write) MSHR misses (Count)
system.cpu.dcache.demandMshrMisses::total        69400                       # number of demand (read+write) MSHR misses (Count)
system.cpu.dcache.overallMshrMisses::cpu.data        69400                       # number of overall MSHR misses (Count)
system.cpu.dcache.overallMshrMisses::total        69400                       # number of overall MSHR misses (Count)
system.cpu.dcache.demandMshrMissLatency::cpu.data   7277253993                       # number of demand (read+write) MSHR miss ticks (Tick)
system.cpu.dcache.demandMshrMissLatency::total   7277253993                       # number of demand (read+write) MSHR miss ticks (Tick)
system.cpu.dcache.overallMshrMissLatency::cpu.data   7277253993                       # number of overall MSHR miss ticks (Tick)
system.cpu.dcache.overallMshrMissLatency::total   7277253993                       # number of overall MSHR miss ticks (Tick)
system.cpu.dcache.demandMshrMissRate::cpu.data     0.003252                       # mshr miss ratio for demand accesses (Ratio)
system.cpu.dcache.demandMshrMissRate::total     0.003252                       # mshr miss ratio for demand accesses (Ratio)
system.cpu.dcache.overallMshrMissRate::cpu.data     0.003252                       # mshr miss ratio for overall accesses (Ratio)
system.cpu.dcache.overallMshrMissRate::total     0.003252                       # mshr miss ratio for overall accesses (Ratio)
system.cpu.dcache.demandAvgMshrMissLatency::cpu.data 104859.567622                       # average overall mshr miss latency ((Cycle/Count))
system.cpu.dcache.demandAvgMshrMissLatency::total 104859.567622                       # average overall mshr miss latency ((Cycle/Count))
system.cpu.dcache.overallAvgMshrMissLatency::cpu.data 104859.567622                       # average overall mshr miss latency ((Cycle/Count))
system.cpu.dcache.overallAvgMshrMissLatency::total 104859.567622                       # average overall mshr miss latency ((Cycle/Count))
system.cpu.dcache.replacements                  59513                       # number of replacements (Count)
system.cpu.dcache.ReadReq.hits::cpu.data     10428170                       # number of ReadReq hits (Count)
system.cpu.dcache.ReadReq.hits::total        10428170                       # number of ReadReq hits (Count)
system.cpu.dcache.ReadReq.misses::cpu.data       163861                       # number of ReadReq misses (Count)
system.cpu.dcache.ReadReq.misses::total        163861                       # number of ReadReq misses (Count)
system.cpu.dcache.ReadReq.missLatency::cpu.data  16952883000                       # number of ReadReq miss ticks (Tick)
system.cpu.dcache.ReadReq.missLatency::total  16952883000                       # number of ReadReq miss ticks (Tick)
system.cpu.dcache.ReadReq.accesses::cpu.data     10592031                       # number of ReadReq accesses(hits+misses) (Count)
system.cpu.dcache.ReadReq.accesses::total     10592031                       # number of ReadReq accesses(hits+misses) (Count)
system.cpu.dcache.ReadReq.missRate::cpu.data     0.015470                       # miss rate for ReadReq accesses (Ratio)
system.cpu.dcache.ReadReq.missRate::total     0.015470                       # miss rate for ReadReq accesses (Ratio)
system.cpu.dcache.ReadReq.avgMissLatency::cpu.data 103458.925553                       # average ReadReq miss latency ((Tick/Count))
system.cpu.dcache.ReadReq.avgMissLatency::total 103458.925553                       # average ReadReq miss latency ((Tick/Count))
system.cpu.dcache.ReadReq.mshrHits::cpu.data       124688                       # number of ReadReq MSHR hits (Count)
system.cpu.dcache.ReadReq.mshrHits::total       124688                       # number of ReadReq MSHR hits (Count)
system.cpu.dcache.ReadReq.mshrMisses::cpu.data        39173                       # number of ReadReq MSHR misses (Count)
system.cpu.dcache.ReadReq.mshrMisses::total        39173                       # number of ReadReq MSHR misses (Count)
system.cpu.dcache.ReadReq.mshrMissLatency::cpu.data   4532205000                       # number of ReadReq MSHR miss ticks (Tick)
system.cpu.dcache.ReadReq.mshrMissLatency::total   4532205000                       # number of ReadReq MSHR miss ticks (Tick)
system.cpu.dcache.ReadReq.mshrMissRate::cpu.data     0.003698                       # mshr miss rate for ReadReq accesses (Ratio)
system.cpu.dcache.ReadReq.mshrMissRate::total     0.003698                       # mshr miss rate for ReadReq accesses (Ratio)
system.cpu.dcache.ReadReq.avgMshrMissLatency::cpu.data 115697.163863                       # average ReadReq mshr miss latency ((Tick/Count))
system.cpu.dcache.ReadReq.avgMshrMissLatency::total 115697.163863                       # average ReadReq mshr miss latency ((Tick/Count))
system.cpu.dcache.WriteReq.hits::cpu.data     10718615                       # number of WriteReq hits (Count)
system.cpu.dcache.WriteReq.hits::total       10718615                       # number of WriteReq hits (Count)
system.cpu.dcache.WriteReq.misses::cpu.data        30234                       # number of WriteReq misses (Count)
system.cpu.dcache.WriteReq.misses::total        30234                       # number of WriteReq misses (Count)
system.cpu.dcache.WriteReq.missLatency::cpu.data   2805516993                       # number of WriteReq miss ticks (Tick)
system.cpu.dcache.WriteReq.missLatency::total   2805516993                       # number of WriteReq miss ticks (Tick)
system.cpu.dcache.WriteReq.accesses::cpu.data     10748849                       # number of WriteReq accesses(hits+misses) (Count)
system.cpu.dcache.WriteReq.accesses::total     10748849                       # number of WriteReq accesses(hits+misses) (Count)
system.cpu.dcache.WriteReq.missRate::cpu.data     0.002813                       # miss rate for WriteReq accesses (Ratio)
system.cpu.dcache.WriteReq.missRate::total     0.002813                       # miss rate for WriteReq accesses (Ratio)
system.cpu.dcache.WriteReq.avgMissLatency::cpu.data 92793.444235                       # average WriteReq miss latency ((Tick/Count))
system.cpu.dcache.WriteReq.avgMissLatency::total 92793.444235                       # average WriteReq miss latency ((Tick/Count))
system.cpu.dcache.WriteReq.mshrHits::cpu.data            7                       # number of WriteReq MSHR hits (Count)
system.cpu.dcache.WriteReq.mshrHits::total            7                       # number of WriteReq MSHR hits (Count)
system.cpu.dcache.WriteReq.mshrMisses::cpu.data        30227                       # number of WriteReq MSHR misses (Count)
system.cpu.dcache.WriteReq.mshrMisses::total        30227                       # number of WriteReq MSHR misses (Count)
system.cpu.dcache.WriteReq.mshrMissLatency::cpu.data   2745048993                       # number of WriteReq MSHR miss ticks (Tick)
system.cpu.dcache.WriteReq.mshrMissLatency::total   2745048993                       # number of WriteReq MSHR miss ticks (Tick)
system.cpu.dcache.WriteReq.mshrMissRate::cpu.data     0.002812                       # mshr miss rate for WriteReq accesses (Ratio)
system.cpu.dcache.WriteReq.mshrMissRate::total     0.002812                       # mshr miss rate for WriteReq accesses (Ratio)
system.cpu.dcache.WriteReq.avgMshrMissLatency::cpu.data 90814.470275                       # average WriteReq mshr miss latency ((Tick/Count))
system.cpu.dcache.WriteReq.avgMshrMissLatency::total 90814.470275                       # average WriteReq mshr miss latency ((Tick/Count))
system.cpu.dcache.power_state.pwrStateResidencyTicks::UNDEFINED  56453959000                       # Cumulative time (in ticks) in various power states (Tick)
system.cpu.dcache.tags.tagsInUse          1022.049639                       # Average ticks per tags in use ((Tick/Count))
system.cpu.dcache.tags.totalRefs             21224536                       # Total number of references to valid blocks. (Count)
system.cpu.dcache.tags.sampledRefs              60537                       # Sample count of references to valid blocks. (Count)
system.cpu.dcache.tags.avgRefs             350.604358                       # Average number of references to valid blocks. ((Count/Count))
system.cpu.dcache.tags.warmupTick              231000                       # The tick when the warmup percentage was hit. (Tick)
system.cpu.dcache.tags.occupancies::cpu.data  1022.049639                       # Average occupied blocks per tick, per requestor ((Count/Tick))
system.cpu.dcache.tags.avgOccs::cpu.data     0.998095                       # Average percentage of cache occupancy ((Ratio/Tick))
system.cpu.dcache.tags.avgOccs::total        0.998095                       # Average percentage of cache occupancy ((Ratio/Tick))
system.cpu.dcache.tags.occupanciesTaskId::1024         1024                       # Occupied blocks per task id (Count)
system.cpu.dcache.tags.ageTaskId_1024::0           55                       # Occupied blocks per task id, per block age (Count)
system.cpu.dcache.tags.ageTaskId_1024::1          528                       # Occupied blocks per task id, per block age (Count)
system.cpu.dcache.tags.ageTaskId_1024::2          439                       # Occupied blocks per task id, per block age (Count)
system.cpu.dcache.tags.ageTaskId_1024::3            2                       # Occupied blocks per task id, per block age (Count)
system.cpu.dcache.tags.ratioOccsTaskId::1024            1                       # Ratio of occupied blocks and all blocks, per task id (Ratio)
system.cpu.dcache.tags.tagAccesses           42742297                       # Number of tag accesses (Count)
system.cpu.dcache.tags.dataAccesses          42742297                       # Number of data accesses (Count)
system.cpu.dcache.tags.power_state.pwrStateResidencyTicks::UNDEFINED  56453959000                       # Cumulative time (in ticks) in various power states (Tick)
system.cpu.decode.idleCycles                  6261537                       # Number of cycles decode is idle (Cycle)
system.cpu.decode.blockedCycles              34798352                       # Number of cycles decode is blocked (Cycle)
system.cpu.decode.runCycles                  14241793                       # Number of cycles decode is running (Cycle)
system.cpu.decode.unblockCycles                896737                       # Number of cycles decode is unblocking (Cycle)
system.cpu.decode.squashCycles                 149868                       # Number of cycles decode is squashing (Cycle)
system.cpu.decode.branchResolved              4274950                       # Number of times decode resolved a branch (Count)
system.cpu.decode.branchMispred                   791                       # Number of times decode detected a branch misprediction (Count)
system.cpu.decode.decodedInsts              100658335                       # Number of instructions handled by decode (Count)
system.cpu.decode.squashedInsts                  3580                       # Number of squashed instructions handled by decode (Count)
system.cpu.fetch.icacheStallCycles            8456623                       # Number of cycles fetch is stalled on an Icache miss (Cycle)
system.cpu.fetch.insts                       58748465                       # Number of instructions fetch has processed (Count)
system.cpu.fetch.branches                     7654591                       # Number of branches that fetch encountered (Count)
system.cpu.fetch.predictedBranches            5931929                       # Number of branches that fetch has predicted taken (Count)
system.cpu.fetch.cycles                      47734193                       # Number of cycles fetch has run and was not squashing or blocked (Cycle)
system.cpu.fetch.squashCycles                  301272                       # Number of cycles fetch has spent squashing (Cycle)
system.cpu.fetch.miscStallCycles                  824                       # Number of cycles fetch has spent waiting on interrupts, or bad addresses, or out of MSHRs (Cycle)
system.cpu.fetch.pendingTrapStallCycles          5763                       # Number of stall cycles due to pending traps (Cycle)
system.cpu.fetch.pendingQuiesceStallCycles          246                       # Number of stall cycles due to pending quiesce instructions (Cycle)
system.cpu.fetch.icacheWaitRetryStallCycles            2                       # Number of stall cycles due to full MSHR (Cycle)
system.cpu.fetch.cacheLines                   8345928                       # Number of cache lines fetched (Count)
system.cpu.fetch.icacheSquashes                 50006                       # Number of outstanding Icache misses that were squashed (Count)
system.cpu.fetch.nisnDist::samples           56348287                       # Number of instructions fetched each cycle (Total) (Count)
system.cpu.fetch.nisnDist::mean              1.807227                       # Number of instructions fetched each cycle (Total) (Count)
system.cpu.fetch.nisnDist::stdev             3.067963                       # Number of instructions fetched each cycle (Total) (Count)
system.cpu.fetch.nisnDist::underflows               0      0.00%      0.00% # Number of instructions fetched each cycle (Total) (Count)
system.cpu.fetch.nisnDist::0                 39749311     70.54%     70.54% # Number of instructions fetched each cycle (Total) (Count)
system.cpu.fetch.nisnDist::1                   990099      1.76%     72.30% # Number of instructions fetched each cycle (Total) (Count)
system.cpu.fetch.nisnDist::2                   800840      1.42%     73.72% # Number of instructions fetched each cycle (Total) (Count)
system.cpu.fetch.nisnDist::3                  1225427      2.17%     75.90% # Number of instructions fetched each cycle (Total) (Count)
system.cpu.fetch.nisnDist::4                  1490031      2.64%     78.54% # Number of instructions fetched each cycle (Total) (Count)
system.cpu.fetch.nisnDist::5                   847960      1.50%     80.04% # Number of instructions fetched each cycle (Total) (Count)
system.cpu.fetch.nisnDist::6                  1677129      2.98%     83.02% # Number of instructions fetched each cycle (Total) (Count)
system.cpu.fetch.nisnDist::7                  1236539      2.19%     85.22% # Number of instructions fetched each cycle (Total) (Count)
system.cpu.fetch.nisnDist::8                  8330951     14.78%    100.00% # Number of instructions fetched each cycle (Total) (Count)
system.cpu.fetch.nisnDist::overflows                0      0.00%    100.00% # Number of instructions fetched each cycle (Total) (Count)
system.cpu.fetch.nisnDist::min_value                0                       # Number of instructions fetched each cycle (Total) (Count)
system.cpu.fetch.nisnDist::max_value                8                       # Number of instructions fetched each cycle (Total) (Count)
system.cpu.fetch.nisnDist::total             56348287                       # Number of instructions fetched each cycle (Total) (Count)
system.cpu.fetch.branchRate                  0.135590                       # Number of branch fetches per cycle (Ratio)
system.cpu.fetch.rate                        1.040644                       # Number of inst fetches per cycle ((Count/Cycle))
system.cpu.icache.demandHits::cpu.inst        8342853                       # number of demand (read+write) hits (Count)
system.cpu.icache.demandHits::total           8342853                       # number of demand (read+write) hits (Count)
system.cpu.icache.overallHits::cpu.inst       8342853                       # number of overall hits (Count)
system.cpu.icache.overallHits::total          8342853                       # number of overall hits (Count)
system.cpu.icache.demandMisses::cpu.inst         3075                       # number of demand (read+write) misses (Count)
system.cpu.icache.demandMisses::total            3075                       # number of demand (read+write) misses (Count)
system.cpu.icache.overallMisses::cpu.inst         3075                       # number of overall misses (Count)
system.cpu.icache.overallMisses::total           3075                       # number of overall misses (Count)
system.cpu.icache.demandMissLatency::cpu.inst    304901999                       # number of demand (read+write) miss ticks (Tick)
system.cpu.icache.demandMissLatency::total    304901999                       # number of demand (read+write) miss ticks (Tick)
system.cpu.icache.overallMissLatency::cpu.inst    304901999                       # number of overall miss ticks (Tick)
system.cpu.icache.overallMissLatency::total    304901999                       # number of overall miss ticks (Tick)
system.cpu.icache.demandAccesses::cpu.inst      8345928                       # number of demand (read+write) accesses (Count)
system.cpu.icache.demandAccesses::total       8345928                       # number of demand (read+write) accesses (Count)
system.cpu.icache.overallAccesses::cpu.inst      8345928                       # number of overall (read+write) accesses (Count)
system.cpu.icache.overallAccesses::total      8345928                       # number of overall (read+write) accesses (Count)
system.cpu.icache.demandMissRate::cpu.inst     0.000368                       # miss rate for demand accesses (Ratio)
system.cpu.icache.demandMissRate::total      0.000368                       # miss rate for demand accesses (Ratio)
system.cpu.icache.overallMissRate::cpu.inst     0.000368                       # miss rate for overall accesses (Ratio)
system.cpu.icache.overallMissRate::total     0.000368                       # miss rate for overall accesses (Ratio)
system.cpu.icache.demandAvgMissLatency::cpu.inst 99155.121626                       # average overall miss latency ((Cycle/Count))
system.cpu.icache.demandAvgMissLatency::total 99155.121626                       # average overall miss latency ((Cycle/Count))
system.cpu.icache.overallAvgMissLatency::cpu.inst 99155.121626                       # average overall miss latency ((Cycle/Count))
system.cpu.icache.overallAvgMissLatency::total 99155.121626                       # average overall miss latency ((Cycle/Count))
system.cpu.icache.blockedCycles::no_mshrs          519                       # number of cycles access was blocked (Cycle)
system.cpu.icache.blockedCycles::no_targets            0                       # number of cycles access was blocked (Cycle)
system.cpu.icache.blockedCauses::no_mshrs           10                       # number of times access was blocked (Count)
system.cpu.icache.blockedCauses::no_targets            0                       # number of times access was blocked (Count)
system.cpu.icache.avgBlocked::no_mshrs      51.900000                       # average number of cycles each access was blocked ((Cycle/Count))
system.cpu.icache.avgBlocked::no_targets          nan                       # average number of cycles each access was blocked ((Cycle/Count))
system.cpu.icache.demandMshrHits::cpu.inst          746                       # number of demand (read+write) MSHR hits (Count)
system.cpu.icache.demandMshrHits::total           746                       # number of demand (read+write) MSHR hits (Count)
system.cpu.icache.overallMshrHits::cpu.inst          746                       # number of overall MSHR hits (Count)
system.cpu.icache.overallMshrHits::total          746                       # number of overall MSHR hits (Count)
system.cpu.icache.demandMshrMisses::cpu.inst         2329                       # number of demand (read+write) MSHR misses (Count)
system.cpu.icache.demandMshrMisses::total         2329                       # number of demand (read+write) MSHR misses (Count)
system.cpu.icache.overallMshrMisses::cpu.inst         2329                       # number of overall MSHR misses (Count)
system.cpu.icache.overallMshrMisses::total         2329                       # number of overall MSHR misses (Count)
system.cpu.icache.demandMshrMissLatency::cpu.inst    243898999                       # number of demand (read+write) MSHR miss ticks (Tick)
system.cpu.icache.demandMshrMissLatency::total    243898999                       # number of demand (read+write) MSHR miss ticks (Tick)
system.cpu.icache.overallMshrMissLatency::cpu.inst    243898999                       # number of overall MSHR miss ticks (Tick)
system.cpu.icache.overallMshrMissLatency::total    243898999                       # number of overall MSHR miss ticks (Tick)
system.cpu.icache.demandMshrMissRate::cpu.inst     0.000279                       # mshr miss ratio for demand accesses (Ratio)
system.cpu.icache.demandMshrMissRate::total     0.000279                       # mshr miss ratio for demand accesses (Ratio)
system.cpu.icache.overallMshrMissRate::cpu.inst     0.000279                       # mshr miss ratio for overall accesses (Ratio)
system.cpu.icache.overallMshrMissRate::total     0.000279                       # mshr miss ratio for overall accesses (Ratio)
system.cpu.icache.demandAvgMshrMissLatency::cpu.inst 104722.627308                       # average overall mshr miss latency ((Cycle/Count))
system.cpu.icache.demandAvgMshrMissLatency::total 104722.627308                       # average overall mshr miss latency ((Cycle/Count))
system.cpu.icache.overallAvgMshrMissLatency::cpu.inst 104722.627308                       # average overall mshr miss latency ((Cycle/Count))
system.cpu.icache.overallAvgMshrMissLatency::total 104722.627308                       # average overall mshr miss latency ((Cycle/Count))
system.cpu.icache.replacements                   2071                       # number of replacements (Count)
system.cpu.icache.ReadReq.hits::cpu.inst      8342853                       # number of ReadReq hits (Count)
system.cpu.icache.ReadReq.hits::total         8342853                       # number of ReadReq hits (Count)
system.cpu.icache.ReadReq.misses::cpu.inst         3075                       # number of ReadReq misses (Count)
system.cpu.icache.ReadReq.misses::total          3075                       # number of ReadReq misses (Count)
system.cpu.icache.ReadReq.missLatency::cpu.inst    304901999                       # number of ReadReq miss ticks (Tick)
system.cpu.icache.ReadReq.missLatency::total    304901999                       # number of ReadReq miss ticks (Tick)
system.cpu.icache.ReadReq.accesses::cpu.inst      8345928                       # number of ReadReq accesses(hits+misses) (Count)
system.cpu.icache.ReadReq.accesses::total      8345928                       # number of ReadReq accesses(hits+misses) (Count)
system.cpu.icache.ReadReq.missRate::cpu.inst     0.000368                       # miss rate for ReadReq accesses (Ratio)
system.cpu.icache.ReadReq.missRate::total     0.000368                       # miss rate for ReadReq accesses (Ratio)
system.cpu.icache.ReadReq.avgMissLatency::cpu.inst 99155.121626                       # average ReadReq miss latency ((Tick/Count))
system.cpu.icache.ReadReq.avgMissLatency::total 99155.121626                       # average ReadReq miss latency ((Tick/Count))
system.cpu.icache.ReadReq.mshrHits::cpu.inst          746                       # number of ReadReq MSHR hits (Count)
system.cpu.icache.ReadReq.mshrHits::total          746                       # number of ReadReq MSHR hits (Count)
system.cpu.icache.ReadReq.mshrMisses::cpu.inst         2329                       # number of ReadReq MSHR misses (Count)
system.cpu.icache.ReadReq.mshrMisses::total         2329                       # number of ReadReq MSHR misses (Count)
system.cpu.icache.ReadReq.mshrMissLatency::cpu.inst    243898999                       # number of ReadReq MSHR miss ticks (Tick)
system.cpu.icache.ReadReq.mshrMissLatency::total    243898999                       # number of ReadReq MSHR miss ticks (Tick)
system.cpu.icache.ReadReq.mshrMissRate::cpu.inst     0.000279                       # mshr miss rate for ReadReq accesses (Ratio)
system.cpu.icache.ReadReq.mshrMissRate::total     0.000279                       # mshr miss rate for ReadReq accesses (Ratio)
system.cpu.icache.ReadReq.avgMshrMissLatency::cpu.inst 104722.627308                       # average ReadReq mshr miss latency ((Tick/Count))
system.cpu.icache.ReadReq.avgMshrMissLatency::total 104722.627308                       # average ReadReq mshr miss latency ((Tick/Count))
system.cpu.icache.power_state.pwrStateResidencyTicks::UNDEFINED  56453959000                       # Cumulative time (in ticks) in various power states (Tick)
system.cpu.icache.tags.tagsInUse           255.911927                       # Average ticks per tags in use ((Tick/Count))
system.cpu.icache.tags.totalRefs              8345181                       # Total number of references to valid blocks. (Count)
system.cpu.icache.tags.sampledRefs               2328                       # Sample count of references to valid blocks. (Count)
system.cpu.icache.tags.avgRefs            3584.699742                       # Average number of references to valid blocks. ((Count/Count))
system.cpu.icache.tags.warmupTick              109000                       # The tick when the warmup percentage was hit. (Tick)
system.cpu.icache.tags.occupancies::cpu.inst   255.911927                       # Average occupied blocks per tick, per requestor ((Count/Tick))
system.cpu.icache.tags.avgOccs::cpu.inst     0.999656                       # Average percentage of cache occupancy ((Ratio/Tick))
system.cpu.icache.tags.avgOccs::total        0.999656                       # Average percentage of cache occupancy ((Ratio/Tick))
system.cpu.icache.tags.occupanciesTaskId::1024          256                       # Occupied blocks per task id (Count)
system.cpu.icache.tags.ageTaskId_1024::0           73                       # Occupied blocks per task id, per block age (Count)
system.cpu.icache.tags.ageTaskId_1024::1          156                       # Occupied blocks per task id, per block age (Count)
system.cpu.icache.tags.ageTaskId_1024::4           27                       # Occupied blocks per task id, per block age (Count)
system.cpu.icache.tags.ratioOccsTaskId::1024            1                       # Ratio of occupied blocks and all blocks, per task id (Ratio)
system.cpu.icache.tags.tagAccesses           16694184                       # Number of tag accesses (Count)
system.cpu.icache.tags.dataAccesses          16694184                       # Number of data accesses (Count)
system.cpu.icache.tags.power_state.pwrStateResidencyTicks::UNDEFINED  56453959000                       # Cumulative time (in ticks) in various power states (Tick)
system.cpu.interrupts.clk_domain.clock          16000                       # Clock period in ticks (Tick)
system.cpu.lsq0.forwLoads                    11410842                       # Number of loads that had data forwarded from stores (Count)
system.cpu.lsq0.squashedLoads                 3528957                       # Number of loads squashed (Count)
system.cpu.lsq0.ignoredResponses                24923                       # Number of memory responses ignored because the instruction is squashed (Count)
system.cpu.lsq0.memOrderViolation                3109                       # Number of memory ordering violations (Count)
system.cpu.lsq0.squashedStores                 789622                       # Number of stores squashed (Count)
system.cpu.lsq0.rescheduledLoads                    5                       # Number of loads that were rescheduled (Count)
system.cpu.lsq0.blockedByCache                    505                       # Number of times an access to memory failed due to the cache being blocked (Count)
system.cpu.lsq0.loadToUse::samples           19316023                       # Distribution of cycle latency between the first time a load is issued and its completion (Unspecified)
system.cpu.lsq0.loadToUse::mean              3.408336                       # Distribution of cycle latency between the first time a load is issued and its completion (Unspecified)
system.cpu.lsq0.loadToUse::stdev            10.252457                       # Distribution of cycle latency between the first time a load is issued and its completion (Unspecified)
system.cpu.lsq0.loadToUse::0-9               19160539     99.20%     99.20% # Distribution of cycle latency between the first time a load is issued and its completion (Unspecified)
system.cpu.lsq0.loadToUse::10-19                 1133      0.01%     99.20% # Distribution of cycle latency between the first time a load is issued and its completion (Unspecified)
system.cpu.lsq0.loadToUse::20-29                 6731      0.03%     99.24% # Distribution of cycle latency between the first time a load is issued and its completion (Unspecified)
system.cpu.lsq0.loadToUse::30-39                  552      0.00%     99.24% # Distribution of cycle latency between the first time a load is issued and its completion (Unspecified)
system.cpu.lsq0.loadToUse::40-49                  707      0.00%     99.24% # Distribution of cycle latency between the first time a load is issued and its completion (Unspecified)
system.cpu.lsq0.loadToUse::50-59                 8748      0.05%     99.29% # Distribution of cycle latency between the first time a load is issued and its completion (Unspecified)
system.cpu.lsq0.loadToUse::60-69                 1390      0.01%     99.29% # Distribution of cycle latency between the first time a load is issued and its completion (Unspecified)
system.cpu.lsq0.loadToUse::70-79                 1732      0.01%     99.30% # Distribution of cycle latency between the first time a load is issued and its completion (Unspecified)
system.cpu.lsq0.loadToUse::80-89                24997      0.13%     99.43% # Distribution of cycle latency between the first time a load is issued and its completion (Unspecified)
system.cpu.lsq0.loadToUse::90-99                29147      0.15%     99.58% # Distribution of cycle latency between the first time a load is issued and its completion (Unspecified)
system.cpu.lsq0.loadToUse::100-109              25093      0.13%     99.71% # Distribution of cycle latency between the first time a load is issued and its completion (Unspecified)
system.cpu.lsq0.loadToUse::110-119              18777      0.10%     99.81% # Distribution of cycle latency between the first time a load is issued and its completion (Unspecified)
system.cpu.lsq0.loadToUse::120-129              16682      0.09%     99.90% # Distribution of cycle latency between the first time a load is issued and its completion (Unspecified)
system.cpu.lsq0.loadToUse::130-139                596      0.00%     99.90% # Distribution of cycle latency between the first time a load is issued and its completion (Unspecified)
system.cpu.lsq0.loadToUse::140-149                338      0.00%     99.90% # Distribution of cycle latency between the first time a load is issued and its completion (Unspecified)
system.cpu.lsq0.loadToUse::150-159                405      0.00%     99.90% # Distribution of cycle latency between the first time a load is issued and its completion (Unspecified)
system.cpu.lsq0.loadToUse::160-169               7128      0.04%     99.94% # Distribution of cycle latency between the first time a load is issued and its completion (Unspecified)
system.cpu.lsq0.loadToUse::170-179               1364      0.01%     99.95% # Distribution of cycle latency between the first time a load is issued and its completion (Unspecified)
system.cpu.lsq0.loadToUse::180-189               2139      0.01%     99.96% # Distribution of cycle latency between the first time a load is issued and its completion (Unspecified)
system.cpu.lsq0.loadToUse::190-199               1381      0.01%     99.97% # Distribution of cycle latency between the first time a load is issued and its completion (Unspecified)
system.cpu.lsq0.loadToUse::200-209               1237      0.01%     99.97% # Distribution of cycle latency between the first time a load is issued and its completion (Unspecified)
system.cpu.lsq0.loadToUse::210-219               1123      0.01%     99.98% # Distribution of cycle latency between the first time a load is issued and its completion (Unspecified)
system.cpu.lsq0.loadToUse::220-229                895      0.00%     99.98% # Distribution of cycle latency between the first time a load is issued and its completion (Unspecified)
system.cpu.lsq0.loadToUse::230-239                457      0.00%     99.99% # Distribution of cycle latency between the first time a load is issued and its completion (Unspecified)
system.cpu.lsq0.loadToUse::240-249                324      0.00%     99.99% # Distribution of cycle latency between the first time a load is issued and its completion (Unspecified)
system.cpu.lsq0.loadToUse::250-259                202      0.00%     99.99% # Distribution of cycle latency between the first time a load is issued and its completion (Unspecified)
system.cpu.lsq0.loadToUse::260-269                327      0.00%     99.99% # Distribution of cycle latency between the first time a load is issued and its completion (Unspecified)
system.cpu.lsq0.loadToUse::270-279                179      0.00%     99.99% # Distribution of cycle latency between the first time a load is issued and its completion (Unspecified)
system.cpu.lsq0.loadToUse::280-289                148      0.00%     99.99% # Distribution of cycle latency between the first time a load is issued and its completion (Unspecified)
system.cpu.lsq0.loadToUse::290-299                151      0.00%     99.99% # Distribution of cycle latency between the first time a load is issued and its completion (Unspecified)
system.cpu.lsq0.loadToUse::overflows             1401      0.01%    100.00% # Distribution of cycle latency between the first time a load is issued and its completion (Unspecified)
[...]
system.mem_ctrl.dram.numReads::cpu.data         51727                       # Number of read requests responded to by this memory (Count)
system.mem_ctrl.dram.numReads::total            54054                       # Number of read requests responded to by this memory (Count)
system.mem_ctrl.dram.numWrites::writebacks        26663                       # Number of write requests responded to by this memory (Count)
system.mem_ctrl.dram.numWrites::total           26663                       # Number of write requests responded to by this memory (Count)
system.mem_ctrl.dram.bwRead::cpu.inst         2638044                       # Total read bandwidth from this memory ((Byte/Second))
system.mem_ctrl.dram.bwRead::cpu.data        58641202                       # Total read bandwidth from this memory ((Byte/Second))
system.mem_ctrl.dram.bwRead::total           61279245                       # Total read bandwidth from this memory ((Byte/Second))
system.mem_ctrl.dram.bwInstRead::cpu.inst      2638044                       # Instruction read bandwidth from this memory ((Byte/Second))
system.mem_ctrl.dram.bwInstRead::total        2638044                       # Instruction read bandwidth from this memory ((Byte/Second))
system.mem_ctrl.dram.bwWrite::writebacks     30226968                       # Write bandwidth from this memory ((Byte/Second))
system.mem_ctrl.dram.bwWrite::total          30226968                       # Write bandwidth from this memory ((Byte/Second))
system.mem_ctrl.dram.bwTotal::writebacks     30226968                       # Total bandwidth to/from this memory ((Byte/Second))
system.mem_ctrl.dram.bwTotal::cpu.inst        2638044                       # Total bandwidth to/from this memory ((Byte/Second))
system.mem_ctrl.dram.bwTotal::cpu.data       58641202                       # Total bandwidth to/from this memory ((Byte/Second))
system.mem_ctrl.dram.bwTotal::total          91506213                       # Total bandwidth to/from this memory ((Byte/Second))
system.mem_ctrl.dram.readBursts                 54050                       # Number of DRAM read bursts (Count)
system.mem_ctrl.dram.writeBursts                46568                       # Number of DRAM write bursts (Count)
system.mem_ctrl.dram.perBankRdBursts::0          3182                       # Per bank write bursts (Count)
system.mem_ctrl.dram.perBankRdBursts::1          3086                       # Per bank write bursts (Count)
system.mem_ctrl.dram.perBankRdBursts::2          3466                       # Per bank write bursts (Count)
system.mem_ctrl.dram.perBankRdBursts::3          3413                       # Per bank write bursts (Count)
system.mem_ctrl.dram.perBankRdBursts::4          3258                       # Per bank write bursts (Count)
system.mem_ctrl.dram.perBankRdBursts::5          3341                       # Per bank write bursts (Count)
system.mem_ctrl.dram.perBankRdBursts::6          3375                       # Per bank write bursts (Count)
system.mem_ctrl.dram.perBankRdBursts::7          3498                       # Per bank write bursts (Count)
system.mem_ctrl.dram.perBankRdBursts::8          3393                       # Per bank write bursts (Count)
system.mem_ctrl.dram.perBankRdBursts::9          3697                       # Per bank write bursts (Count)
system.mem_ctrl.dram.perBankRdBursts::10         3251                       # Per bank write bursts (Count)
system.mem_ctrl.dram.perBankRdBursts::11         3382                       # Per bank write bursts (Count)
system.mem_ctrl.dram.perBankRdBursts::12         3558                       # Per bank write bursts (Count)
system.mem_ctrl.dram.perBankRdBursts::13         3354                       # Per bank write bursts (Count)
system.mem_ctrl.dram.perBankRdBursts::14         3472                       # Per bank write bursts (Count)
system.mem_ctrl.dram.perBankRdBursts::15         3324                       # Per bank write bursts (Count)
system.mem_ctrl.dram.perBankWrBursts::0          2758                       # Per bank write bursts (Count)
system.mem_ctrl.dram.perBankWrBursts::1          2635                       # Per bank write bursts (Count)
system.mem_ctrl.dram.perBankWrBursts::2          3008                       # Per bank write bursts (Count)
system.mem_ctrl.dram.perBankWrBursts::3          2908                       # Per bank write bursts (Count)
system.mem_ctrl.dram.perBankWrBursts::4          2816                       # Per bank write bursts (Count)
system.mem_ctrl.dram.perBankWrBursts::5          2749                       # Per bank write bursts (Count)
system.mem_ctrl.dram.perBankWrBursts::6          2979                       # Per bank write bursts (Count)
system.mem_ctrl.dram.perBankWrBursts::7          3052                       # Per bank write bursts (Count)
system.mem_ctrl.dram.perBankWrBursts::8          3055                       # Per bank write bursts (Count)
system.mem_ctrl.dram.perBankWrBursts::9          3128                       # Per bank write bursts (Count)
system.mem_ctrl.dram.perBankWrBursts::10         2876                       # Per bank write bursts (Count)
system.mem_ctrl.dram.perBankWrBursts::11         2895                       # Per bank write bursts (Count)
system.mem_ctrl.dram.perBankWrBursts::12         3088                       # Per bank write bursts (Count)
system.mem_ctrl.dram.perBankWrBursts::13         2875                       # Per bank write bursts (Count)
system.mem_ctrl.dram.perBankWrBursts::14         2934                       # Per bank write bursts (Count)
system.mem_ctrl.dram.perBankWrBursts::15         2812                       # Per bank write bursts (Count)
system.mem_ctrl.dram.totQLat               1639106109                       # Total ticks spent queuing (Tick)
system.mem_ctrl.dram.totBusLat              270250000                       # Total ticks spent in databus transfers (Tick)
system.mem_ctrl.dram.totMemAccLat          2652543609                       # Total ticks spent from burst creation until serviced by the DRAM (Tick)
system.mem_ctrl.dram.avgQLat                 30325.74                       # Average queueing delay per DRAM burst ((Tick/Count))
system.mem_ctrl.dram.avgBusLat                5000.00                       # Average bus latency per DRAM burst ((Tick/Count))
system.mem_ctrl.dram.avgMemAccLat            49075.74                       # Average memory access latency per DRAM burst ((Tick/Count))
system.mem_ctrl.dram.readRowHits                17029                       # Number of row buffer hits during reads (Count)
system.mem_ctrl.dram.writeRowHits               39289                       # Number of row buffer hits during writes (Count)
system.mem_ctrl.dram.readRowHitRate             31.51                       # Row buffer hit rate for reads (Ratio)
system.mem_ctrl.dram.writeRowHitRate            84.37                       # Row buffer hit rate for writes (Ratio)
system.mem_ctrl.dram.bytesPerActivate::samples        44291                       # Bytes accessed per row activation (Byte)
system.mem_ctrl.dram.bytesPerActivate::mean   145.349981                       # Bytes accessed per row activation (Byte)
system.mem_ctrl.dram.bytesPerActivate::gmean    88.898675                       # Bytes accessed per row activation (Byte)
system.mem_ctrl.dram.bytesPerActivate::stdev   233.532382                       # Bytes accessed per row activation (Byte)
system.mem_ctrl.dram.bytesPerActivate::0-127        35261     79.61%     79.61% # Bytes accessed per row activation (Byte)
system.mem_ctrl.dram.bytesPerActivate::128-255         4194      9.47%     89.08% # Bytes accessed per row activation (Byte)
system.mem_ctrl.dram.bytesPerActivate::256-383          923      2.08%     91.17% # Bytes accessed per row activation (Byte)
system.mem_ctrl.dram.bytesPerActivate::384-511          499      1.13%     92.29% # Bytes accessed per row activation (Byte)
system.mem_ctrl.dram.bytesPerActivate::512-639          413      0.93%     93.22% # Bytes accessed per row activation (Byte)
system.mem_ctrl.dram.bytesPerActivate::640-767          288      0.65%     93.87% # Bytes accessed per row activation (Byte)
system.mem_ctrl.dram.bytesPerActivate::768-895          245      0.55%     94.43% # Bytes accessed per row activation (Byte)
system.mem_ctrl.dram.bytesPerActivate::896-1023          182      0.41%     94.84% # Bytes accessed per row activation (Byte)
system.mem_ctrl.dram.bytesPerActivate::1024-1151         2286      5.16%    100.00% # Bytes accessed per row activation (Byte)
system.mem_ctrl.dram.bytesPerActivate::total        44291                       # Bytes accessed per row activation (Byte)
system.mem_ctrl.dram.bytesRead                3459200                       # Total number of bytes read from DRAM (Byte)
system.mem_ctrl.dram.bytesWritten             2980352                       # Total number of bytes written to DRAM (Byte)
system.mem_ctrl.dram.avgRdBW                61.274711                       # Average DRAM read bandwidth in MiBytes/s ((Byte/Second))
system.mem_ctrl.dram.avgWrBW                52.792613                       # Average DRAM write bandwidth in MiBytes/s ((Byte/Second))
system.mem_ctrl.dram.peakBW                  12800.00                       # Theoretical peak bandwidth in MiByte/s ((Byte/Second))
system.mem_ctrl.dram.busUtil                     0.89                       # Data bus utilization in percentage (Ratio)
system.mem_ctrl.dram.busUtilRead                 0.48                       # Data bus utilization in percentage for reads (Ratio)
system.mem_ctrl.dram.busUtilWrite                0.41                       # Data bus utilization in percentage for writes (Ratio)
system.mem_ctrl.dram.pageHitRate                55.97                       # Row buffer hit rate, read and write combined (Ratio)
system.mem_ctrl.dram.power_state.pwrStateResidencyTicks::UNDEFINED  56453959000                       # Cumulative time (in ticks) in various power states (Tick)
system.mem_ctrl.dram.rank0.actEnergy        158522280                       # Energy for activate commands per rank (pJ) (Joule)
system.mem_ctrl.dram.rank0.preEnergy         84230025                       # Energy for precharge commands per rank (pJ) (Joule)
system.mem_ctrl.dram.rank0.readEnergy       190059660                       # Energy for read commands per rank (pJ) (Joule)
system.mem_ctrl.dram.rank0.writeEnergy      119564100                       # Energy for write commands per rank (pJ) (Joule)
system.mem_ctrl.dram.rank0.refreshEnergy 4456140000.000001                       # Energy for refresh commands per rank (pJ) (Joule)
system.mem_ctrl.dram.rank0.actBackEnergy  10045853280                       # Energy for active background per rank (pJ) (Joule)
system.mem_ctrl.dram.rank0.preBackEnergy  13218654720                       # Energy for precharge background per rank (pJ) (Joule)
system.mem_ctrl.dram.rank0.actPowerDownEnergy            0                       # Energy for active power-down per rank (pJ) (Joule)
system.mem_ctrl.dram.rank0.prePowerDownEnergy            0                       # Energy for precharge power-down per rank (pJ) (Joule)
system.mem_ctrl.dram.rank0.selfRefreshEnergy            0                       # Energy for self refresh per rank (pJ) (Joule)
system.mem_ctrl.dram.rank0.totalEnergy    28273024065                       # Total energy per rank (pJ) (Joule)
system.mem_ctrl.dram.rank0.averagePower    500.815613                       # Core power per rank (mW) (Watt)
system.mem_ctrl.dram.rank0.totalIdleTime            0                       # Total Idle time Per DRAM Rank (Tick)
system.mem_ctrl.dram.rank0.pwrStateTime::IDLE  34135859517                       # Time in different power states (Tick)
system.mem_ctrl.dram.rank0.pwrStateTime::REF   1885000000                       # Time in different power states (Tick)
system.mem_ctrl.dram.rank0.pwrStateTime::SREF            0                       # Time in different power states (Tick)
system.mem_ctrl.dram.rank0.pwrStateTime::PRE_PDN            0                       # Time in different power states (Tick)
system.mem_ctrl.dram.rank0.pwrStateTime::ACT  20433099483                       # Time in different power states (Tick)
system.mem_ctrl.dram.rank0.pwrStateTime::ACT_PDN            0                       # Time in different power states (Tick)
system.mem_ctrl.dram.rank1.actEnergy        157779720                       # Energy for activate commands per rank (pJ) (Joule)
system.mem_ctrl.dram.rank1.preEnergy         83854320                       # Energy for precharge commands per rank (pJ) (Joule)
system.mem_ctrl.dram.rank1.readEnergy       195857340                       # Energy for read commands per rank (pJ) (Joule)
system.mem_ctrl.dram.rank1.writeEnergy      123520860                       # Energy for write commands per rank (pJ) (Joule)
system.mem_ctrl.dram.rank1.refreshEnergy 4456140000.000001                       # Energy for refresh commands per rank (pJ) (Joule)
system.mem_ctrl.dram.rank1.actBackEnergy  10065666480                       # Energy for active background per rank (pJ) (Joule)
system.mem_ctrl.dram.rank1.preBackEnergy  13201969920                       # Energy for precharge background per rank (pJ) (Joule)
system.mem_ctrl.dram.rank1.actPowerDownEnergy            0                       # Energy for active power-down per rank (pJ) (Joule)
system.mem_ctrl.dram.rank1.prePowerDownEnergy            0                       # Energy for precharge power-down per rank (pJ) (Joule)
system.mem_ctrl.dram.rank1.selfRefreshEnergy            0                       # Energy for self refresh per rank (pJ) (Joule)
system.mem_ctrl.dram.rank1.totalEnergy    28284788640                       # Total energy per rank (pJ) (Joule)
system.mem_ctrl.dram.rank1.averagePower    501.024005                       # Core power per rank (mW) (Watt)
system.mem_ctrl.dram.rank1.totalIdleTime            0                       # Total Idle time Per DRAM Rank (Tick)
system.mem_ctrl.dram.rank1.pwrStateTime::IDLE  34094971733                       # Time in different power states (Tick)
system.mem_ctrl.dram.rank1.pwrStateTime::REF   1885000000                       # Time in different power states (Tick)
system.mem_ctrl.dram.rank1.pwrStateTime::SREF            0                       # Time in different power states (Tick)
system.mem_ctrl.dram.rank1.pwrStateTime::PRE_PDN            0                       # Time in different power states (Tick)
system.mem_ctrl.dram.rank1.pwrStateTime::ACT  20473987267                       # Time in different power states (Tick)
system.mem_ctrl.dram.rank1.pwrStateTime::ACT_PDN            0                       # Time in different power states (Tick)
system.mem_ctrl.power_state.pwrStateResidencyTicks::UNDEFINED  56453959000                       # Cumulative time (in ticks) in various power states (Tick)
system.membus.transDist::ReadResp               36155                       # Transaction distribution (Count)
system.membus.transDist::WritebackDirty         26663                       # Transaction distribution (Count)
system.membus.transDist::WritebackClean         19925                       # Transaction distribution (Count)
system.membus.transDist::CleanEvict              2067                       # Transaction distribution (Count)
system.membus.transDist::UpgradeReq              8875                       # Transaction distribution (Count)
system.membus.transDist::ReadExReq              17899                       # Transaction distribution (Count)
system.membus.transDist::ReadExResp             17899                       # Transaction distribution (Count)
system.membus.transDist::ReadCleanReq           36155                       # Transaction distribution (Count)
system.membus.pktCount_system.l2_victimcache.mem_side_port::system.mem_ctrl.port       165638                       # Packet count per connected requestor and responder (Count)
system.membus.pktCount_system.l2_victimcache.mem_side_port::total       165638                       # Packet count per connected requestor and responder (Count)
system.membus.pktCount::total                  165638                       # Packet count per connected requestor and responder (Count)
system.membus.pktSize_system.l2_victimcache.mem_side_port::system.mem_ctrl.port      6441088                       # Cumulative packet size per connected requestor and responder (Byte)
system.membus.pktSize_system.l2_victimcache.mem_side_port::total      6441088                       # Cumulative packet size per connected requestor and responder (Byte)
system.membus.pktSize::total                  6441088                       # Cumulative packet size per connected requestor and responder (Byte)
system.membus.snoops                                0                       # Total snoops (Count)
system.membus.snoopTraffic                          0                       # Total snoop traffic (Byte)
system.membus.snoopFanout::samples              62929                       # Request fanout histogram (Count)
system.membus.snoopFanout::mean                     0                       # Request fanout histogram (Count)
system.membus.snoopFanout::stdev                    0                       # Request fanout histogram (Count)
system.membus.snoopFanout::underflows               0      0.00%      0.00% # Request fanout histogram (Count)
system.membus.snoopFanout::0                    62929    100.00%    100.00% # Request fanout histogram (Count)
system.membus.snoopFanout::1                        0      0.00%    100.00% # Request fanout histogram (Count)
system.membus.snoopFanout::overflows                0      0.00%    100.00% # Request fanout histogram (Count)
system.membus.snoopFanout::min_value                0                       # Request fanout histogram (Count)
system.membus.snoopFanout::max_value                0                       # Request fanout histogram (Count)
system.membus.snoopFanout::total                62929                       # Request fanout histogram (Count)
system.membus.power_state.pwrStateResidencyTicks::UNDEFINED  56453959000                       # Cumulative time (in ticks) in various power states (Tick)
system.membus.reqLayer2.occupancy           400343490                       # Layer occupancy (ticks) (Tick)
system.membus.reqLayer2.utilization               0.0                       # Layer utilization (Ratio)
system.membus.respLayer0.occupancy          294340017                       # Layer occupancy (ticks) (Tick)
system.membus.respLayer0.utilization              0.0                       # Layer utilization (Ratio)
system.membus.snoop_filter.totRequests         111584                       # Total number of requests made to the snoop filter. (Count)
system.membus.snoop_filter.hitSingleRequests        57537                       # Number of requests hitting in the snoop filter with a single holder of the requested data. (Count)
system.membus.snoop_filter.hitMultiRequests            0                       # Number of requests hitting in the snoop filter with multiple (>1) holders of the requested data. (Count)
system.membus.snoop_filter.totSnoops                0                       # Total number of snoops made to the snoop filter. (Count)
system.membus.snoop_filter.hitSingleSnoops            0                       # Number of snoops hitting in the snoop filter with a single holder of the requested data. (Count)
system.membus.snoop_filter.hitMultiSnoops            0                       # Number of snoops hitting in the snoop filter with multiple (>1) holders of the requested data. (Count)
system.workload.inst.arm                            0                       # number of arm instructions executed (Count)
system.workload.inst.quiesce                        0                       # number of quiesce instructions executed (Count)

---------- End Simulation Statistics   ----------
