
---------- Begin Simulation Statistics ----------
simSeconds                                   0.000131                       # Number of seconds simulated (Second)
simTicks                                    130542000                       # Number of ticks simulated (Tick)
finalTick                                   130542000                       # Number of ticks from beginning of simulation (restored from checkpoints and never reset) (Tick)
simFreq                                  1000000000000                       # The number of ticks per simulated second ((Tick/Second))
hostSeconds                                      0.81                       # Real time elapsed on the host (Second)
hostTickRate                                162105325                       # The number of ticks simulated per host second (ticks/s) ((Tick/Second))
hostMemory                                     645992                       # Number of bytes of host memory used (Byte)
simInsts                                       123099                       # Number of instructions simulated (Count)
simOps                                         245702                       # Number of ops (including micro ops) simulated (Count)
hostInstRate                                   152836                       # Simulator instruction rate (inst/s) ((Count/Second))
hostOpRate                                     305048                       # Simulator op (including micro ops) rate (op/s) ((Count/Second))
system.clk_domain.clock                          1000                       # Clock period in ticks (Tick)
system.clk_domain.voltage_domain.voltage            1                       # Voltage in Volts (Volt)
system.cpu.numCycles                           130543                       # Number of cpu cycles simulated (Cycle)
system.cpu.numWorkItemsStarted                      0                       # Number of work items this cpu started (Count)
system.cpu.numWorkItemsCompleted                    0                       # Number of work items this cpu completed (Count)
system.cpu.instsAdded                          259138                       # Number of instructions added to the IQ (excludes non-spec) (Count)
system.cpu.nonSpecInstsAdded                        1                       # Number of non-speculative instructions added to the IQ (Count)
system.cpu.instsIssued                         257588                       # Number of instructions issued (Count)
system.cpu.squashedInstsIssued                     48                       # Number of squashed instructions issued (Count)
system.cpu.squashedInstsExamined                13431                       # Number of squashed instructions iterated over during squash; mainly for profiling (Count)
system.cpu.squashedOperandsExamined             15183                       # Number of squashed operands that are examined and possibly removed from graph (Count)
system.cpu.squashedNonSpecRemoved                   1                       # Number of squashed non-spec instructions that were removed (Count)
system.cpu.numIssuedDist::samples              110546                       # Number of insts issued each cycle (Count)
system.cpu.numIssuedDist::mean               2.330143                       # Number of insts issued each cycle (Count)
system.cpu.numIssuedDist::stdev              1.863915                       # Number of insts issued each cycle (Count)
system.cpu.numIssuedDist::underflows                0      0.00%      0.00% # Number of insts issued each cycle (Count)
system.cpu.numIssuedDist::0                     25881     23.41%     23.41% # Number of insts issued each cycle (Count)
system.cpu.numIssuedDist::1                     10754      9.73%     33.14% # Number of insts issued each cycle (Count)
system.cpu.numIssuedDist::2                     28569     25.84%     58.98% # Number of insts issued each cycle (Count)
system.cpu.numIssuedDist::3                     20926     18.93%     77.91% # Number of insts issued each cycle (Count)
system.cpu.numIssuedDist::4                      2114      1.91%     79.83% # Number of insts issued each cycle (Count)
system.cpu.numIssuedDist::5                     16538     14.96%     94.79% # Number of insts issued each cycle (Count)
system.cpu.numIssuedDist::6                      4918      4.45%     99.23% # Number of insts issued each cycle (Count)
system.cpu.numIssuedDist::7                       504      0.46%     99.69% # Number of insts issued each cycle (Count)
system.cpu.numIssuedDist::8                       342      0.31%    100.00% # Number of insts issued each cycle (Count)
system.cpu.numIssuedDist::overflows                 0      0.00%    100.00% # Number of insts issued each cycle (Count)
system.cpu.numIssuedDist::min_value                 0                       # Number of insts issued each cycle (Count)
system.cpu.numIssuedDist::max_value                 8                       # Number of insts issued each cycle (Count)
system.cpu.numIssuedDist::total                110546                       # Number of insts issued each cycle (Count)
system.cpu.statFuBusy::No_OpClass                   0      0.00%      0.00% # attempts to use FU when none available (Count)
system.cpu.statFuBusy::IntAlu                     259      2.95%      2.95% # attempts to use FU when none available (Count)
system.cpu.statFuBusy::IntMult                      0      0.00%      2.95% # attempts to use FU when none available (Count)
system.cpu.statFuBusy::IntDiv                       0      0.00%      2.95% # attempts to use FU when none available (Count)
system.cpu.statFuBusy::FloatAdd                     0      0.00%      2.95% # attempts to use FU when none available (Count)
system.cpu.statFuBusy::FloatCmp                     0      0.00%      2.95% # attempts to use FU when none available (Count)
system.cpu.statFuBusy::FloatCvt                     0      0.00%      2.95% # attempts to use FU when none available (Count)
system.cpu.statFuBusy::FloatMult                    0      0.00%      2.95% # attempts to use FU when none available (Count)
system.cpu.statFuBusy::FloatMultAcc                 0      0.00%      2.95% # attempts to use FU when none available (Count)
system.cpu.statFuBusy::FloatDiv                     0      0.00%      2.95% # attempts to use FU when none available (Count)
system.cpu.statFuBusy::FloatMisc                    0      0.00%      2.95% # attempts to use FU when none available (Count)
system.cpu.statFuBusy::FloatSqrt                    0      0.00%      2.95% # attempts to use FU when none available (Count)
system.cpu.statFuBusy::SimdAdd                      0      0.00%      2.95% # attempts to use FU when none available (Count)
system.cpu.statFuBusy::SimdAddAcc                   0      0.00%      2.95% # attempts to use FU when none available (Count)
system.cpu.statFuBusy::SimdAlu                     11      0.13%      3.08% # attempts to use FU when none available (Count)
system.cpu.statFuBusy::SimdCmp                      0      0.00%      3.08% # attempts to use FU when none available (Count)
system.cpu.statFuBusy::SimdCvt                      2      0.02%      3.10% # attempts to use FU when none available (Count)
system.cpu.statFuBusy::SimdMisc                     2      0.02%      3.12% # attempts to use FU when none available (Count)
system.cpu.statFuBusy::SimdMult                     0      0.00%      3.12% # attempts to use FU when none available (Count)
system.cpu.statFuBusy::SimdMultAcc                  0      0.00%      3.12% # attempts to use FU when none available (Count)
system.cpu.statFuBusy::SimdShift                    0      0.00%      3.12% # attempts to use FU when none available (Count)
system.cpu.statFuBusy::SimdShiftAcc                 0      0.00%      3.12% # attempts to use FU when none available (Count)
system.cpu.statFuBusy::SimdDiv                      0      0.00%      3.12% # attempts to use FU when none available (Count)
system.cpu.statFuBusy::SimdSqrt                     0      0.00%      3.12% # attempts to use FU when none available (Count)
system.cpu.statFuBusy::SimdFloatAdd                 0      0.00%      3.12% # attempts to use FU when none available (Count)
system.cpu.statFuBusy::SimdFloatAlu                 0      0.00%      3.12% # attempts to use FU when none available (Count)
system.cpu.statFuBusy::SimdFloatCmp                 0      0.00%      3.12% # attempts to use FU when none available (Count)
system.cpu.statFuBusy::SimdFloatCvt                 0      0.00%      3.12% # attempts to use FU when none available (Count)
system.cpu.statFuBusy::SimdFloatDiv                 0      0.00%      3.12% # attempts to use FU when none available (Count)
system.cpu.statFuBusy::SimdFloatMisc                0      0.00%      3.12% # attempts to use FU when none available (Count)
system.cpu.statFuBusy::SimdFloatMult                0      0.00%      3.12% # attempts to use FU when none available (Count)
system.cpu.statFuBusy::SimdFloatMultAcc             0      0.00%      3.12% # attempts to use FU when none available (Count)
system.cpu.statFuBusy::SimdFloatSqrt                0      0.00%      3.12% # attempts to use FU when none available (Count)
system.cpu.statFuBusy::SimdReduceAdd                0      0.00%      3.12% # attempts to use FU when none available (Count)
system.cpu.statFuBusy::SimdReduceAlu                0      0.00%      3.12% # attempts to use FU when none available (Count)
system.cpu.statFuBusy::SimdReduceCmp                0      0.00%      3.12% # attempts to use FU when none available (Count)
system.cpu.statFuBusy::SimdFloatReduceAdd            0      0.00%      3.12% # attempts to use FU when none available (Count)
system.cpu.statFuBusy::SimdFloatReduceCmp            0      0.00%      3.12% # attempts to use FU when none available (Count)
system.cpu.statFuBusy::SimdAes                      0      0.00%      3.12% # attempts to use FU when none available (Count)
system.cpu.statFuBusy::SimdAesMix                   0      0.00%      3.12% # attempts to use FU when none available (Count)
system.cpu.statFuBusy::SimdSha1Hash                 0      0.00%      3.12% # attempts to use FU when none available (Count)
system.cpu.statFuBusy::SimdSha1Hash2                0      0.00%      3.12% # attempts to use FU when none available (Count)
system.cpu.statFuBusy::SimdSha256Hash               0      0.00%      3.12% # attempts to use FU when none available (Count)
system.cpu.statFuBusy::SimdSha256Hash2              0      0.00%      3.12% # attempts to use FU when none available (Count)
system.cpu.statFuBusy::SimdShaSigma2                0      0.00%      3.12% # attempts to use FU when none available (Count)
system.cpu.statFuBusy::SimdShaSigma3                0      0.00%      3.12% # attempts to use FU when none available (Count)
system.cpu.statFuBusy::SimdPredAlu                  0      0.00%      3.12% # attempts to use FU when none available (Count)
system.cpu.statFuBusy::MemRead                     21      0.24%      3.36% # attempts to use FU when none available (Count)
system.cpu.statFuBusy::MemWrite                    16      0.18%      3.55% # attempts to use FU when none available (Count)
system.cpu.statFuBusy::FloatMemRead              8445     96.31%     99.85% # attempts to use FU when none available (Count)
system.cpu.statFuBusy::FloatMemWrite               13      0.15%    100.00% # attempts to use FU when none available (Count)
system.cpu.statFuBusy::IprAccess                    0      0.00%    100.00% # attempts to use FU when none available (Count)
system.cpu.statFuBusy::InstPrefetch                 0      0.00%    100.00% # attempts to use FU when none available (Count)
system.cpu.statIssuedInstType_0::No_OpClass          672      0.26%      0.26% # Number of instructions issued per FU type, per thread (Count)
system.cpu.statIssuedInstType_0::IntAlu        102012     39.60%     39.86% # Number of instructions issued per FU type, per thread (Count)
system.cpu.statIssuedInstType_0::IntMult            5      0.00%     39.87% # Number of instructions issued per FU type, per thread (Count)
system.cpu.statIssuedInstType_0::IntDiv            22      0.01%     39.87% # Number of instructions issued per FU type, per thread (Count)
system.cpu.statIssuedInstType_0::FloatAdd          136      0.05%     39.93% # Number of instructions issued per FU type, per thread (Count)
system.cpu.statIssuedInstType_0::FloatCmp            0      0.00%     39.93% # Number of instructions issued per FU type, per thread (Count)
system.cpu.statIssuedInstType_0::FloatCvt            0      0.00%     39.93% # Number of instructions issued per FU type, per thread (Count)
system.cpu.statIssuedInstType_0::FloatMult            0      0.00%     39.93% # Number of instructions issued per FU type, per thread (Count)
system.cpu.statIssuedInstType_0::FloatMultAcc            0      0.00%     39.93% # Number of instructions issued per FU type, per thread (Count)
system.cpu.statIssuedInstType_0::FloatDiv            0      0.00%     39.93% # Number of instructions issued per FU type, per thread (Count)
system.cpu.statIssuedInstType_0::FloatMisc            0      0.00%     39.93% # Number of instructions issued per FU type, per thread (Count)
system.cpu.statIssuedInstType_0::FloatSqrt            0      0.00%     39.93% # Number of instructions issued per FU type, per thread (Count)
system.cpu.statIssuedInstType_0::SimdAdd            0      0.00%     39.93% # Number of instructions issued per FU type, per thread (Count)
system.cpu.statIssuedInstType_0::SimdAddAcc            0      0.00%     39.93% # Number of instructions issued per FU type, per thread (Count)
system.cpu.statIssuedInstType_0::SimdAlu          160      0.06%     39.99% # Number of instructions issued per FU type, per thread (Count)
system.cpu.statIssuedInstType_0::SimdCmp            0      0.00%     39.99% # Number of instructions issued per FU type, per thread (Count)
system.cpu.statIssuedInstType_0::SimdCvt           48      0.02%     40.01% # Number of instructions issued per FU type, per thread (Count)
system.cpu.statIssuedInstType_0::SimdMisc          218      0.08%     40.09% # Number of instructions issued per FU type, per thread (Count)
system.cpu.statIssuedInstType_0::SimdMult            0      0.00%     40.09% # Number of instructions issued per FU type, per thread (Count)
system.cpu.statIssuedInstType_0::SimdMultAcc            0      0.00%     40.09% # Number of instructions issued per FU type, per thread (Count)
system.cpu.statIssuedInstType_0::SimdShift            0      0.00%     40.09% # Number of instructions issued per FU type, per thread (Count)
system.cpu.statIssuedInstType_0::SimdShiftAcc            0      0.00%     40.09% # Number of instructions issued per FU type, per thread (Count)
system.cpu.statIssuedInstType_0::SimdDiv            0      0.00%     40.09% # Number of instructions issued per FU type, per thread (Count)
system.cpu.statIssuedInstType_0::SimdSqrt            0      0.00%     40.09% # Number of instructions issued per FU type, per thread (Count)
system.cpu.statIssuedInstType_0::SimdFloatAdd        73728     28.62%     68.71% # Number of instructions issued per FU type, per thread (Count)
system.cpu.statIssuedInstType_0::SimdFloatAlu            0      0.00%     68.71% # Number of instructions issued per FU type, per thread (Count)
system.cpu.statIssuedInstType_0::SimdFloatCmp            0      0.00%     68.71% # Number of instructions issued per FU type, per thread (Count)
system.cpu.statIssuedInstType_0::SimdFloatCvt            0      0.00%     68.71% # Number of instructions issued per FU type, per thread (Count)
system.cpu.statIssuedInstType_0::SimdFloatDiv            0      0.00%     68.71% # Number of instructions issued per FU type, per thread (Count)
system.cpu.statIssuedInstType_0::SimdFloatMisc            0      0.00%     68.71% # Number of instructions issued per FU type, per thread (Count)
system.cpu.statIssuedInstType_0::SimdFloatMult            0      0.00%     68.71% # Number of instructions issued per FU type, per thread (Count)
system.cpu.statIssuedInstType_0::SimdFloatMultAcc            0      0.00%     68.71% # Number of instructions issued per FU type, per thread (Count)
system.cpu.statIssuedInstType_0::SimdFloatSqrt            0      0.00%     68.71% # Number of instructions issued per FU type, per thread (Count)
system.cpu.statIssuedInstType_0::SimdReduceAdd            0      0.00%     68.71% # Number of instructions issued per FU type, per thread (Count)
system.cpu.statIssuedInstType_0::SimdReduceAlu            0      0.00%     68.71% # Number of instructions issued per FU type, per thread (Count)
system.cpu.statIssuedInstType_0::SimdReduceCmp            0      0.00%     68.71% # Number of instructions issued per FU type, per thread (Count)
system.cpu.statIssuedInstType_0::SimdFloatReduceAdd            0      0.00%     68.71% # Number of instructions issued per FU type, per thread (Count)
system.cpu.statIssuedInstType_0::SimdFloatReduceCmp            0      0.00%     68.71% # Number of instructions issued per FU type, per thread (Count)
system.cpu.statIssuedInstType_0::SimdAes            0      0.00%     68.71% # Number of instructions issued per FU type, per thread (Count)
system.cpu.statIssuedInstType_0::SimdAesMix            0      0.00%     68.71% # Number of instructions issued per FU type, per thread (Count)
system.cpu.statIssuedInstType_0::SimdSha1Hash            0      0.00%     68.71% # Number of instructions issued per FU type, per thread (Count)
system.cpu.statIssuedInstType_0::SimdSha1Hash2            0      0.00%     68.71% # Number of instructions issued per FU type, per thread (Count)
system.cpu.statIssuedInstType_0::SimdSha256Hash            0      0.00%     68.71% # Number of instructions issued per FU type, per thread (Count)
system.cpu.statIssuedInstType_0::SimdSha256Hash2            0      0.00%     68.71% # Number of instructions issued per FU type, per thread (Count)
system.cpu.statIssuedInstType_0::SimdShaSigma2            0      0.00%     68.71% # Number of instructions issued per FU type, per thread (Count)
system.cpu.statIssuedInstType_0::SimdShaSigma3            0      0.00%     68.71% # Number of instructions issued per FU type, per thread (Count)
system.cpu.statIssuedInstType_0::SimdPredAlu            0      0.00%     68.71% # Number of instructions issued per FU type, per thread (Count)
system.cpu.statIssuedInstType_0::MemRead         2899      1.13%     69.84% # Number of instructions issued per FU type, per thread (Count)
system.cpu.statIssuedInstType_0::MemWrite         1799      0.70%     70.54% # Number of instructions issued per FU type, per thread (Count)
system.cpu.statIssuedInstType_0::FloatMemRead        75344     29.25%     99.79% # Number of instructions issued per FU type, per thread (Count)
system.cpu.statIssuedInstType_0::FloatMemWrite          545      0.21%    100.00% # Number of instructions issued per FU type, per thread (Count)
system.cpu.statIssuedInstType_0::IprAccess            0      0.00%    100.00% # Number of instructions issued per FU type, per thread (Count)
system.cpu.statIssuedInstType_0::InstPrefetch            0      0.00%    100.00% # Number of instructions issued per FU type, per thread (Count)
system.cpu.statIssuedInstType_0::total         257588                       # Number of instructions issued per FU type, per thread (Count)
system.cpu.issueRate                         1.973204                       # Inst issue rate ((Count/Cycle))
system.cpu.fuBusy                                8769                       # FU busy when requested (Count)
system.cpu.fuBusyRate                        0.034043                       # FU busy rate (busy events/executed inst) ((Count/Count))
system.cpu.intInstQueueReads                   325428                       # Number of integer instruction queue reads (Count)
system.cpu.intInstQueueWrites                  123602                       # Number of integer instruction queue writes (Count)
system.cpu.intInstQueueWakeupAccesses          105590                       # Number of integer instruction queue wakeup accesses (Count)
system.cpu.fpInstQueueReads                    309111                       # Number of floating instruction queue reads (Count)
system.cpu.fpInstQueueWrites                   148980                       # Number of floating instruction queue writes (Count)
system.cpu.fpInstQueueWakeupAccesses           148755                       # Number of floating instruction queue wakeup accesses (Count)
system.cpu.vecInstQueueReads                        0                       # Number of vector instruction queue reads (Count)
system.cpu.vecInstQueueWrites                       0                       # Number of vector instruction queue writes (Count)
system.cpu.vecInstQueueWakeupAccesses               0                       # Number of vector instruction queue wakeup accesses (Count)
system.cpu.intAluAccesses                      106893                       # Number of integer alu accesses (Count)
system.cpu.fpAluAccesses                       158792                       # Number of floating point alu accesses (Count)
system.cpu.vecAluAccesses                           0                       # Number of vector alu accesses (Count)
system.cpu.idleCycles                               0                       # Number of cycles IEW is idle (Cycle)
system.cpu.squashCycles                           606                       # Number of cycles IEW is squashing (Cycle)
system.cpu.blockCycles                           3342                       # Number of cycles IEW is blocking (Cycle)
system.cpu.unblockCycles                         1412                       # Number of cycles IEW is unblocking (Cycle)
system.cpu.dispatchedInsts                     259139                       # Number of instructions dispatched to IQ (Count)
system.cpu.dispSquashedInsts                       27                       # Number of squashed instructions skipped by dispatch (Count)
system.cpu.dispLoadInsts                        76917                       # Number of dispatched load instructions (Count)
system.cpu.dispStoreInsts                        2733                       # Number of dispatched store instructions (Count)
system.cpu.dispNonSpecInsts                         1                       # Number of dispatched non-speculative instructions (Count)
system.cpu.iqFullEvents                            16                       # Number of times the IQ has become full, causing a stall (Count)
system.cpu.lsqFullEvents                         1389                       # Number of times the LSQ has become full, causing a stall (Count)
system.cpu.memOrderViolationEvents                 13                       # Number of memory order violations (Count)
system.cpu.predictedTakenIncorrect                 49                       # Number of branches that were predicted taken incorrectly (Count)
system.cpu.predictedNotTakenIncorrect             646                       # Number of branches that were predicted not taken incorrectly (Count)
system.cpu.branchMispredicts                      695                       # Number of branch mispredicts detected at execute (Count)
system.cpu.numInsts                            256627                       # Number of executed instructions (Count)
system.cpu.numLoadInsts                         78063                       # Number of load instructions executed (Count)
system.cpu.numSquashedInsts                       961                       # Number of squashed instructions skipped in execute (Count)
system.cpu.numSwp                                   0                       # Number of swp insts executed (Count)
system.cpu.numNop                                   0                       # Number of nop insts executed (Count)
system.cpu.numRefs                              80316                       # Number of memory reference insts executed (Count)
system.cpu.numBranches                          10670                       # Number of branches executed (Count)
system.cpu.numStoreInsts                         2253                       # Number of stores executed (Count)
system.cpu.numRate                           1.965843                       # Inst execution rate ((Count/Cycle))
system.cpu.instsToCommit                       254742                       # Cumulative count of insts sent to commit (Count)
system.cpu.writebackCount                      254345                       # Cumulative count of insts written-back (Count)
system.cpu.producerInst                        225952                       # Number of instructions producing a value (Count)
system.cpu.consumerInst                        349746                       # Number of instructions consuming a value (Count)
system.cpu.wbRate                            1.948362                       # Insts written-back per cycle ((Count/Cycle))
system.cpu.wbFanout                          0.646046                       # Average fanout of values written-back ((Count/Count))
system.cpu.timesIdled                             295                       # Number of times that the entire CPU went into an idle state and unscheduled itself (Count)
system.cpu.idleCycles                           19997                       # Total number of cycles that the CPU has spent unscheduled due to idling (Cycle)
system.cpu.committedInsts                      123099                       # Number of Instructions Simulated (Count)
system.cpu.committedOps                        245702                       # Number of Ops (including micro ops) Simulated (Count)
system.cpu.cpi                               1.060472                       # CPI: Cycles Per Instruction ((Cycle/Count))
system.cpu.totalCpi                          1.060472                       # CPI: Total CPI of All Threads ((Cycle/Count))
system.cpu.ipc                               0.942977                       # IPC: Instructions Per Cycle ((Count/Cycle))
system.cpu.totalIpc                          0.942977                       # IPC: Total IPC of All Threads ((Count/Cycle))
system.cpu.intRegfileReads                     275244                       # Number of integer regfile reads (Count)
system.cpu.intRegfileWrites                     92947                       # Number of integer regfile writes (Count)
system.cpu.fpRegfileReads                      222730                       # Number of floating regfile reads (Count)
system.cpu.fpRegfileWrites                     148178                       # Number of floating regfile writes (Count)
system.cpu.ccRegfileReads                       60337                       # number of cc regfile reads (Count)
system.cpu.ccRegfileWrites                      56536                       # number of cc regfile writes (Count)
system.cpu.miscRegfileReads                    102707                       # number of misc regfile reads (Count)
system.cpu.MemDepUnit__0.insertedLoads          76917                       # Number of loads inserted to the mem dependence unit. (Count)
system.cpu.MemDepUnit__0.insertedStores          2733                       # Number of stores inserted to the mem dependence unit. (Count)
system.cpu.MemDepUnit__0.conflictingLoads           24                       # Number of conflicting loads. (Count)
system.cpu.MemDepUnit__0.conflictingStores            1                       # Number of conflicting stores. (Count)
system.cpu.MemDepUnit__1.insertedLoads              0                       # Number of loads inserted to the mem dependence unit. (Count)
system.cpu.MemDepUnit__1.insertedStores             0                       # Number of stores inserted to the mem dependence unit. (Count)
system.cpu.MemDepUnit__1.conflictingLoads            0                       # Number of conflicting loads. (Count)
system.cpu.MemDepUnit__1.conflictingStores            0                       # Number of conflicting stores. (Count)
system.cpu.MemDepUnit__2.insertedLoads              0                       # Number of loads inserted to the mem dependence unit. (Count)
system.cpu.MemDepUnit__2.insertedStores             0                       # Number of stores inserted to the mem dependence unit. (Count)
system.cpu.MemDepUnit__2.conflictingLoads            0                       # Number of conflicting loads. (Count)
system.cpu.MemDepUnit__2.conflictingStores            0                       # Number of conflicting stores. (Count)
system.cpu.MemDepUnit__3.insertedLoads              0                       # Number of loads inserted to the mem dependence unit. (Count)
system.cpu.MemDepUnit__3.insertedStores             0                       # Number of stores inserted to the mem dependence unit. (Count)
system.cpu.MemDepUnit__3.conflictingLoads            0                       # Number of conflicting loads. (Count)
system.cpu.MemDepUnit__3.conflictingStores            0                       # Number of conflicting stores. (Count)
system.cpu.branchPred.lookups                   12347                       # Number of BP lookups (Count)
system.cpu.branchPred.condPredicted             11079                       # Number of conditional branches predicted (Count)
system.cpu.branchPred.condIncorrect               694                       # Number of conditional branches incorrect (Count)
system.cpu.branchPred.BTBLookups                10084                       # Number of BTB lookups (Count)
system.cpu.branchPred.BTBHits                    9396                       # Number of BTB hits (Count)
system.cpu.branchPred.BTBHitRatio            0.931773                       # BTB Hit Ratio (Ratio)
system.cpu.branchPred.RASUsed                     278                       # Number of times the RAS was used to get a target. (Count)
system.cpu.branchPred.RASIncorrect                  0                       # Number of incorrect RAS predictions. (Count)
system.cpu.branchPred.indirectLookups             357                       # Number of indirect predictor lookups. (Count)
system.cpu.branchPred.indirectHits                 12                       # Number of indirect target hits. (Count)
system.cpu.branchPred.indirectMisses              345                       # Number of indirect misses. (Count)
system.cpu.branchPred.indirectMispredicted           94                       # Number of mispredicted indirect branches. (Count)
system.cpu.commit.commitSquashedInsts           13323                       # The number of squashed insts skipped by commit (Count)
system.cpu.commit.branchMispredicts               581                       # The number of times a branch was mispredicted (Count)
system.cpu.commit.numCommittedDist::samples       108422                       # Number of insts commited each cycle (Count)
system.cpu.commit.numCommittedDist::mean     2.266164                       # Number of insts commited each cycle (Count)
system.cpu.commit.numCommittedDist::stdev     2.285223                       # Number of insts commited each cycle (Count)
system.cpu.commit.numCommittedDist::underflows            0      0.00%      0.00% # Number of insts commited each cycle (Count)
system.cpu.commit.numCommittedDist::0           28923     26.68%     26.68% # Number of insts commited each cycle (Count)
system.cpu.commit.numCommittedDist::1            2422      2.23%     28.91% # Number of insts commited each cycle (Count)
system.cpu.commit.numCommittedDist::2           58010     53.50%     82.41% # Number of insts commited each cycle (Count)
system.cpu.commit.numCommittedDist::3            1135      1.05%     83.46% # Number of insts commited each cycle (Count)
system.cpu.commit.numCommittedDist::4             504      0.46%     83.93% # Number of insts commited each cycle (Count)
system.cpu.commit.numCommittedDist::5             388      0.36%     84.28% # Number of insts commited each cycle (Count)
system.cpu.commit.numCommittedDist::6            8158      7.52%     91.81% # Number of insts commited each cycle (Count)
system.cpu.commit.numCommittedDist::7             105      0.10%     91.90% # Number of insts commited each cycle (Count)
system.cpu.commit.numCommittedDist::8            8777      8.10%    100.00% # Number of insts commited each cycle (Count)
system.cpu.commit.numCommittedDist::overflows            0      0.00%    100.00% # Number of insts commited each cycle (Count)
system.cpu.commit.numCommittedDist::min_value            0                       # Number of insts commited each cycle (Count)
system.cpu.commit.numCommittedDist::max_value            8                       # Number of insts commited each cycle (Count)
system.cpu.commit.numCommittedDist::total       108422                       # Number of insts commited each cycle (Count)
system.cpu.commit.instsCommitted               123099                       # Number of instructions committed (Count)
system.cpu.commit.opsCommitted                 245702                       # Number of ops (including micro ops) committed (Count)
system.cpu.commit.memRefs                       76934                       # Number of memory references committed (Count)
system.cpu.commit.loads                         75288                       # Number of loads committed (Count)
system.cpu.commit.amos                              0                       # Number of atomic instructions committed (Count)
system.cpu.commit.membars                           0                       # Number of memory barriers committed (Count)
system.cpu.commit.branches                       9936                       # Number of branches committed (Count)
system.cpu.commit.vectorInstructions                0                       # Number of committed Vector instructions. (Count)
system.cpu.commit.floating                     148624                       # Number of committed floating point instructions. (Count)
system.cpu.commit.integer                      171222                       # Number of committed integer instructions. (Count)
system.cpu.commit.functionCalls                   150                       # Number of function calls committed. (Count)
system.cpu.commit.committedInstType_0::No_OpClass          195      0.08%      0.08% # Class of committed instruction (Count)
system.cpu.commit.committedInstType_0::IntAlu        94327     38.39%     38.47% # Class of committed instruction (Count)
system.cpu.commit.committedInstType_0::IntMult            5      0.00%     38.47% # Class of committed instruction (Count)
system.cpu.commit.committedInstType_0::IntDiv           21      0.01%     38.48% # Class of committed instruction (Count)
system.cpu.commit.committedInstType_0::FloatAdd          135      0.05%     38.54% # Class of committed instruction (Count)
system.cpu.commit.committedInstType_0::FloatCmp            0      0.00%     38.54% # Class of committed instruction (Count)
system.cpu.commit.committedInstType_0::FloatCvt            0      0.00%     38.54% # Class of committed instruction (Count)
system.cpu.commit.committedInstType_0::FloatMult            0      0.00%     38.54% # Class of committed instruction (Count)
system.cpu.commit.committedInstType_0::FloatMultAcc            0      0.00%     38.54% # Class of committed instruction (Count)
system.cpu.commit.committedInstType_0::FloatDiv            0      0.00%     38.54% # Class of committed instruction (Count)
system.cpu.commit.committedInstType_0::FloatMisc            0      0.00%     38.54% # Class of committed instruction (Count)
system.cpu.commit.committedInstType_0::FloatSqrt            0      0.00%     38.54% # Class of committed instruction (Count)
system.cpu.commit.committedInstType_0::SimdAdd            0      0.00%     38.54% # Class of committed instruction (Count)
system.cpu.commit.committedInstType_0::SimdAddAcc            0      0.00%     38.54% # Class of committed instruction (Count)
system.cpu.commit.committedInstType_0::SimdAlu           96      0.04%     38.57% # Class of committed instruction (Count)
system.cpu.commit.committedInstType_0::SimdCmp            0      0.00%     38.57% # Class of committed instruction (Count)
system.cpu.commit.committedInstType_0::SimdCvt           46      0.02%     38.59% # Class of committed instruction (Count)
system.cpu.commit.committedInstType_0::SimdMisc          215      0.09%     38.68% # Class of committed instruction (Count)
system.cpu.commit.committedInstType_0::SimdMult            0      0.00%     38.68% # Class of committed instruction (Count)
system.cpu.commit.committedInstType_0::SimdMultAcc            0      0.00%     38.68% # Class of committed instruction (Count)
system.cpu.commit.committedInstType_0::SimdShift            0      0.00%     38.68% # Class of committed instruction (Count)
system.cpu.commit.committedInstType_0::SimdShiftAcc            0      0.00%     38.68% # Class of committed instruction (Count)
system.cpu.commit.committedInstType_0::SimdDiv            0      0.00%     38.68% # Class of committed instruction (Count)
system.cpu.commit.committedInstType_0::SimdSqrt            0      0.00%     38.68% # Class of committed instruction (Count)
system.cpu.commit.committedInstType_0::SimdFloatAdd        73728     30.01%     68.69% # Class of committed instruction (Count)
system.cpu.commit.committedInstType_0::SimdFloatAlu            0      0.00%     68.69% # Class of committed instruction (Count)
system.cpu.commit.committedInstType_0::SimdFloatCmp            0      0.00%     68.69% # Class of committed instruction (Count)
system.cpu.commit.committedInstType_0::SimdFloatCvt            0      0.00%     68.69% # Class of committed instruction (Count)
system.cpu.commit.committedInstType_0::SimdFloatDiv            0      0.00%     68.69% # Class of committed instruction (Count)
system.cpu.commit.committedInstType_0::SimdFloatMisc            0      0.00%     68.69% # Class of committed instruction (Count)
system.cpu.commit.committedInstType_0::SimdFloatMult            0      0.00%     68.69% # Class of committed instruction (Count)
system.cpu.commit.committedInstType_0::SimdFloatMultAcc            0      0.00%     68.69% # Class of committed instruction (Count)
system.cpu.commit.committedInstType_0::SimdFloatSqrt            0      0.00%     68.69% # Class of committed instruction (Count)
system.cpu.commit.committedInstType_0::SimdReduceAdd            0      0.00%     68.69% # Class of committed instruction (Count)
system.cpu.commit.committedInstType_0::SimdReduceAlu            0      0.00%     68.69% # Class of committed instruction (Count)
system.cpu.commit.committedInstType_0::SimdReduceCmp            0      0.00%     68.69% # Class of committed instruction (Count)
system.cpu.commit.committedInstType_0::SimdFloatReduceAdd            0      0.00%     68.69% # Class of committed instruction (Count)
system.cpu.commit.committedInstType_0::SimdFloatReduceCmp            0      0.00%     68.69% # Class of committed instruction (Count)
system.cpu.commit.committedInstType_0::SimdAes            0      0.00%     68.69% # Class of committed instruction (Count)
system.cpu.commit.committedInstType_0::SimdAesMix            0      0.00%     68.69% # Class of committed instruction (Count)
system.cpu.commit.committedInstType_0::SimdSha1Hash            0      0.00%     68.69% # Class of committed instruction (Count)
system.cpu.commit.committedInstType_0::SimdSha1Hash2            0      0.00%     68.69% # Class of committed instruction (Count)
system.cpu.commit.committedInstType_0::SimdSha256Hash            0      0.00%     68.69% # Class of committed instruction (Count)
system.cpu.commit.committedInstType_0::SimdSha256Hash2            0      0.00%     68.69% # Class of committed instruction (Count)
system.cpu.commit.committedInstType_0::SimdShaSigma2            0      0.00%     68.69% # Class of committed instruction (Count)
system.cpu.commit.committedInstType_0::SimdShaSigma3            0      0.00%     68.69% # Class of committed instruction (Count)
system.cpu.commit.committedInstType_0::SimdPredAlu            0      0.00%     68.69% # Class of committed instruction (Count)
system.cpu.commit.committedInstType_0::MemRead         1498      0.61%     69.30% # Class of committed instruction (Count)
system.cpu.commit.committedInstType_0::MemWrite         1171      0.48%     69.77% # Class of committed instruction (Count)
system.cpu.commit.committedInstType_0::FloatMemRead        73790     30.03%     99.81% # Class of committed instruction (Count)
system.cpu.commit.committedInstType_0::FloatMemWrite          475      0.19%    100.00% # Class of committed instruction (Count)
system.cpu.commit.committedInstType_0::IprAccess            0      0.00%    100.00% # Class of committed instruction (Count)
system.cpu.commit.committedInstType_0::InstPrefetch            0      0.00%    100.00% # Class of committed instruction (Count)
system.cpu.commit.committedInstType_0::total       245702                       # Class of committed instruction (Count)
system.cpu.commit.commitEligibleSamples          8777                       # number cycles where commit BW limit reached (Cycle)
system.cpu.dcache.demandHits::cpu.data          67683                       # number of demand (read+write) hits (Count)
system.cpu.dcache.demandHits::total             67683                       # number of demand (read+write) hits (Count)
system.cpu.dcache.overallHits::cpu.data         67683                       # number of overall hits (Count)
system.cpu.dcache.overallHits::total            67683                       # number of overall hits (Count)
system.cpu.dcache.demandMisses::cpu.data        14767                       # number of demand (read+write) misses (Count)
system.cpu.dcache.demandMisses::total           14767                       # number of demand (read+write) misses (Count)
system.cpu.dcache.overallMisses::cpu.data        14767                       # number of overall misses (Count)
system.cpu.dcache.overallMisses::total          14767                       # number of overall misses (Count)
system.cpu.dcache.demandMissLatency::cpu.data    168860999                       # number of demand (read+write) miss ticks (Tick)
system.cpu.dcache.demandMissLatency::total    168860999                       # number of demand (read+write) miss ticks (Tick)
system.cpu.dcache.overallMissLatency::cpu.data    168860999                       # number of overall miss ticks (Tick)
system.cpu.dcache.overallMissLatency::total    168860999                       # number of overall miss ticks (Tick)
system.cpu.dcache.demandAccesses::cpu.data        82450                       # number of demand (read+write) accesses (Count)
system.cpu.dcache.demandAccesses::total         82450                       # number of demand (read+write) accesses (Count)
system.cpu.dcache.overallAccesses::cpu.data        82450                       # number of overall (read+write) accesses (Count)
system.cpu.dcache.overallAccesses::total        82450                       # number of overall (read+write) accesses (Count)
system.cpu.dcache.demandMissRate::cpu.data     0.179102                       # miss rate for demand accesses (Ratio)
system.cpu.dcache.demandMissRate::total      0.179102                       # miss rate for demand accesses (Ratio)
system.cpu.dcache.overallMissRate::cpu.data     0.179102                       # miss rate for overall accesses (Ratio)
system.cpu.dcache.overallMissRate::total     0.179102                       # miss rate for overall accesses (Ratio)
system.cpu.dcache.demandAvgMissLatency::cpu.data 11435.023972                       # average overall miss latency ((Cycle/Count))
system.cpu.dcache.demandAvgMissLatency::total 11435.023972                       # average overall miss latency ((Cycle/Count))
system.cpu.dcache.overallAvgMissLatency::cpu.data 11435.023972                       # average overall miss latency ((Cycle/Count))
system.cpu.dcache.overallAvgMissLatency::total 11435.023972                       # average overall miss latency ((Cycle/Count))
system.cpu.dcache.blockedCycles::no_mshrs         2946                       # number of cycles access was blocked (Cycle)
system.cpu.dcache.blockedCycles::no_targets            0                       # number of cycles access was blocked (Cycle)
system.cpu.dcache.blockedCauses::no_mshrs          114                       # number of times access was blocked (Count)
system.cpu.dcache.blockedCauses::no_targets            0                       # number of times access was blocked (Count)
system.cpu.dcache.avgBlocked::no_mshrs      25.842105                       # average number of cycles each access was blocked ((Cycle/Count))
system.cpu.dcache.avgBlocked::no_targets          nan                       # average number of cycles each access was blocked ((Cycle/Count))
system.cpu.dcache.writebacks::writebacks        12959                       # number of writebacks (Count)
system.cpu.dcache.writebacks::total             12959                       # number of writebacks (Count)
system.cpu.dcache.demandMshrHits::cpu.data         1487                       # number of demand (read+write) MSHR hits (Count)
system.cpu.dcache.demandMshrHits::total          1487                       # number of demand (read+write) MSHR hits (Count)
system.cpu.dcache.overallMshrHits::cpu.data         1487                       # number of overall MSHR hits (Count)
system.cpu.dcache.overallMshrHits::total         1487                       # number of overall MSHR hits (Count)
system.cpu.dcache.demandMshrMisses::cpu.data        13280                       # number of demand (read+write) MSHR misses (Count)
system.cpu.dcache.demandMshrMisses::total        13280                       # number of demand (read+write) MSHR misses (Count)
system.cpu.dcache.overallMshrMisses::cpu.data        13280                       # number of overall MSHR misses (Count)
system.cpu.dcache.overallMshrMisses::total        13280                       # number of overall MSHR misses (Count)
system.cpu.dcache.demandMshrMissLatency::cpu.data    107190075                       # number of demand (read+write) MSHR miss ticks (Tick)
system.cpu.dcache.demandMshrMissLatency::total    107190075                       # number of demand (read+write) MSHR miss ticks (Tick)
system.cpu.dcache.overallMshrMissLatency::cpu.data    107190075                       # number of overall MSHR miss ticks (Tick)
system.cpu.dcache.overallMshrMissLatency::total    107190075                       # number of overall MSHR miss ticks (Tick)
system.cpu.dcache.demandMshrMissRate::cpu.data     0.161067                       # mshr miss ratio for demand accesses (Ratio)
system.cpu.dcache.demandMshrMissRate::total     0.161067                       # mshr miss ratio for demand accesses (Ratio)
system.cpu.dcache.overallMshrMissRate::cpu.data     0.161067                       # mshr miss ratio for overall accesses (Ratio)
system.cpu.dcache.overallMshrMissRate::total     0.161067                       # mshr miss ratio for overall accesses (Ratio)
system.cpu.dcache.demandAvgMshrMissLatency::cpu.data  8071.541792                       # average overall mshr miss latency ((Cycle/Count))
system.cpu.dcache.demandAvgMshrMissLatency::total  8071.541792                       # average overall mshr miss latency ((Cycle/Count))
system.cpu.dcache.overallAvgMshrMissLatency::cpu.data  8071.541792                       # average overall mshr miss latency ((Cycle/Count))
system.cpu.dcache.overallAvgMshrMissLatency::total  8071.541792                       # average overall mshr miss latency ((Cycle/Count))
system.cpu.dcache.replacements                  12959                       # number of replacements (Count)
system.cpu.dcache.ReadReq.hits::cpu.data        66181                       # number of ReadReq hits (Count)
system.cpu.dcache.ReadReq.hits::total           66181                       # number of ReadReq hits (Count)
system.cpu.dcache.ReadReq.misses::cpu.data        14622                       # number of ReadReq misses (Count)
system.cpu.dcache.ReadReq.misses::total         14622                       # number of ReadReq misses (Count)
system.cpu.dcache.ReadReq.missLatency::cpu.data    154614000                       # number of ReadReq miss ticks (Tick)
system.cpu.dcache.ReadReq.missLatency::total    154614000                       # number of ReadReq miss ticks (Tick)
system.cpu.dcache.ReadReq.accesses::cpu.data        80803                       # number of ReadReq accesses(hits+misses) (Count)
system.cpu.dcache.ReadReq.accesses::total        80803                       # number of ReadReq accesses(hits+misses) (Count)
system.cpu.dcache.ReadReq.missRate::cpu.data     0.180959                       # miss rate for ReadReq accesses (Ratio)
system.cpu.dcache.ReadReq.missRate::total     0.180959                       # miss rate for ReadReq accesses (Ratio)
system.cpu.dcache.ReadReq.avgMissLatency::cpu.data 10574.066475                       # average ReadReq miss latency ((Tick/Count))
system.cpu.dcache.ReadReq.avgMissLatency::total 10574.066475                       # average ReadReq miss latency ((Tick/Count))
system.cpu.dcache.ReadReq.mshrHits::cpu.data         1485                       # number of ReadReq MSHR hits (Count)
system.cpu.dcache.ReadReq.mshrHits::total         1485                       # number of ReadReq MSHR hits (Count)
system.cpu.dcache.ReadReq.mshrMisses::cpu.data        13137                       # number of ReadReq MSHR misses (Count)
system.cpu.dcache.ReadReq.mshrMisses::total        13137                       # number of ReadReq MSHR misses (Count)
system.cpu.dcache.ReadReq.mshrMissLatency::cpu.data     93233076                       # number of ReadReq MSHR miss ticks (Tick)
system.cpu.dcache.ReadReq.mshrMissLatency::total     93233076                       # number of ReadReq MSHR miss ticks (Tick)
system.cpu.dcache.ReadReq.mshrMissRate::cpu.data     0.162581                       # mshr miss rate for ReadReq accesses (Ratio)
system.cpu.dcache.ReadReq.mshrMissRate::total     0.162581                       # mshr miss rate for ReadReq accesses (Ratio)
system.cpu.dcache.ReadReq.avgMshrMissLatency::cpu.data  7096.983786                       # average ReadReq mshr miss latency ((Tick/Count))
system.cpu.dcache.ReadReq.avgMshrMissLatency::total  7096.983786                       # average ReadReq mshr miss latency ((Tick/Count))
system.cpu.dcache.WriteReq.hits::cpu.data         1502                       # number of WriteReq hits (Count)
system.cpu.dcache.WriteReq.hits::total           1502                       # number of WriteReq hits (Count)
system.cpu.dcache.WriteReq.misses::cpu.data          145                       # number of WriteReq misses (Count)
system.cpu.dcache.WriteReq.misses::total          145                       # number of WriteReq misses (Count)
system.cpu.dcache.WriteReq.missLatency::cpu.data     14246999                       # number of WriteReq miss ticks (Tick)
system.cpu.dcache.WriteReq.missLatency::total     14246999                       # number of WriteReq miss ticks (Tick)
system.cpu.dcache.WriteReq.accesses::cpu.data         1647                       # number of WriteReq accesses(hits+misses) (Count)
system.cpu.dcache.WriteReq.accesses::total         1647                       # number of WriteReq accesses(hits+misses) (Count)
system.cpu.dcache.WriteReq.missRate::cpu.data     0.088039                       # miss rate for WriteReq accesses (Ratio)
system.cpu.dcache.WriteReq.missRate::total     0.088039                       # miss rate for WriteReq accesses (Ratio)
system.cpu.dcache.WriteReq.avgMissLatency::cpu.data 98255.165517                       # average WriteReq miss latency ((Tick/Count))
system.cpu.dcache.WriteReq.avgMissLatency::total 98255.165517                       # average WriteReq miss latency ((Tick/Count))
system.cpu.dcache.WriteReq.mshrHits::cpu.data            2                       # number of WriteReq MSHR hits (Count)
system.cpu.dcache.WriteReq.mshrHits::total            2                       # number of WriteReq MSHR hits (Count)
system.cpu.dcache.WriteReq.mshrMisses::cpu.data          143                       # number of WriteReq MSHR misses (Count)
system.cpu.dcache.WriteReq.mshrMisses::total          143                       # number of WriteReq MSHR misses (Count)
system.cpu.dcache.WriteReq.mshrMissLatency::cpu.data     13956999                       # number of WriteReq MSHR miss ticks (Tick)
system.cpu.dcache.WriteReq.mshrMissLatency::total     13956999                       # number of WriteReq MSHR miss ticks (Tick)
system.cpu.dcache.WriteReq.mshrMissRate::cpu.data     0.086825                       # mshr miss rate for WriteReq accesses (Ratio)
system.cpu.dcache.WriteReq.mshrMissRate::total     0.086825                       # mshr miss rate for WriteReq accesses (Ratio)
system.cpu.dcache.WriteReq.avgMshrMissLatency::cpu.data 97601.391608                       # average WriteReq mshr miss latency ((Tick/Count))
system.cpu.dcache.WriteReq.avgMshrMissLatency::total 97601.391608                       # average WriteReq mshr miss latency ((Tick/Count))
system.cpu.dcache.power_state.pwrStateResidencyTicks::UNDEFINED    130542000                       # Cumulative time (in ticks) in various power states (Tick)
system.cpu.dcache.tags.tagsInUse           220.551823                       # Average ticks per tags in use ((Tick/Count))
system.cpu.dcache.tags.totalRefs                80966                       # Total number of references to valid blocks. (Count)
system.cpu.dcache.tags.sampledRefs              13251                       # Sample count of references to valid blocks. (Count)
system.cpu.dcache.tags.avgRefs               6.110180                       # Average number of references to valid blocks. ((Count/Count))
system.cpu.dcache.tags.warmupTick              225000                       # The tick when the warmup percentage was hit. (Tick)
system.cpu.dcache.tags.occupancies::cpu.data   220.551823                       # Average occupied blocks per tick, per requestor ((Count/Tick))
system.cpu.dcache.tags.avgOccs::cpu.data     0.215383                       # Average percentage of cache occupancy ((Ratio/Tick))
system.cpu.dcache.tags.avgOccs::total        0.215383                       # Average percentage of cache occupancy ((Ratio/Tick))
system.cpu.dcache.tags.occupanciesTaskId::1024          292                       # Occupied blocks per task id (Count)
system.cpu.dcache.tags.ageTaskId_1024::0           56                       # Occupied blocks per task id, per block age (Count)
system.cpu.dcache.tags.ageTaskId_1024::1           76                       # Occupied blocks per task id, per block age (Count)
system.cpu.dcache.tags.ageTaskId_1024::2          160                       # Occupied blocks per task id, per block age (Count)
system.cpu.dcache.tags.ratioOccsTaskId::1024     0.285156                       # Ratio of occupied blocks and all blocks, per task id (Ratio)
system.cpu.dcache.tags.tagAccesses             672851                       # Number of tag accesses (Count)
system.cpu.dcache.tags.dataAccesses            672851                       # Number of data accesses (Count)
system.cpu.dcache.tags.power_state.pwrStateResidencyTicks::UNDEFINED    130542000                       # Cumulative time (in ticks) in various power states (Tick)
system.cpu.decode.idleCycles                    24087                       # Number of cycles decode is idle (Cycle)
system.cpu.decode.blockedCycles                 51948                       # Number of cycles decode is blocked (Cycle)
system.cpu.decode.runCycles                     12924                       # Number of cycles decode is running (Cycle)
system.cpu.decode.unblockCycles                 20981                       # Number of cycles decode is unblocking (Cycle)
system.cpu.decode.squashCycles                    606                       # Number of cycles decode is squashing (Cycle)
system.cpu.decode.branchResolved                 9521                       # Number of times decode resolved a branch (Count)
system.cpu.decode.branchMispred                   223                       # Number of times decode detected a branch misprediction (Count)
system.cpu.decode.decodedInsts                 263095                       # Number of instructions handled by decode (Count)
system.cpu.decode.squashedInsts                  1008                       # Number of squashed instructions handled by decode (Count)
system.cpu.fetch.icacheStallCycles              32342                       # Number of cycles fetch is stalled on an Icache miss (Cycle)
system.cpu.fetch.insts                         134416                       # Number of instructions fetch has processed (Count)
system.cpu.fetch.branches                       12347                       # Number of branches that fetch encountered (Count)
system.cpu.fetch.predictedBranches               9686                       # Number of branches that fetch has predicted taken (Count)
system.cpu.fetch.cycles                         76510                       # Number of cycles fetch has run and was not squashing or blocked (Cycle)
system.cpu.fetch.squashCycles                    1654                       # Number of cycles fetch has spent squashing (Cycle)
system.cpu.fetch.miscStallCycles                  124                       # Number of cycles fetch has spent waiting on interrupts, or bad addresses, or out of MSHRs (Cycle)
system.cpu.fetch.pendingTrapStallCycles           726                       # Number of stall cycles due to pending traps (Cycle)
system.cpu.fetch.pendingQuiesceStallCycles            2                       # Number of stall cycles due to pending quiesce instructions (Cycle)
system.cpu.fetch.icacheWaitRetryStallCycles           15                       # Number of stall cycles due to full MSHR (Cycle)
system.cpu.fetch.cacheLines                     18802                       # Number of cache lines fetched (Count)
system.cpu.fetch.icacheSquashes                   364                       # Number of outstanding Icache misses that were squashed (Count)
system.cpu.fetch.nisnDist::samples             110546                       # Number of instructions fetched each cycle (Total) (Count)
system.cpu.fetch.nisnDist::mean              2.414841                       # Number of instructions fetched each cycle (Total) (Count)
system.cpu.fetch.nisnDist::stdev             3.358713                       # Number of instructions fetched each cycle (Total) (Count)
system.cpu.fetch.nisnDist::underflows               0      0.00%      0.00% # Number of instructions fetched each cycle (Total) (Count)
system.cpu.fetch.nisnDist::0                    67766     61.30%     61.30% # Number of instructions fetched each cycle (Total) (Count)
system.cpu.fetch.nisnDist::1                     4355      3.94%     65.24% # Number of instructions fetched each cycle (Total) (Count)
system.cpu.fetch.nisnDist::2                      286      0.26%     65.50% # Number of instructions fetched each cycle (Total) (Count)
system.cpu.fetch.nisnDist::3                      410      0.37%     65.87% # Number of instructions fetched each cycle (Total) (Count)
system.cpu.fetch.nisnDist::4                     4691      4.24%     70.11% # Number of instructions fetched each cycle (Total) (Count)
system.cpu.fetch.nisnDist::5                     4416      3.99%     74.11% # Number of instructions fetched each cycle (Total) (Count)
system.cpu.fetch.nisnDist::6                      317      0.29%     74.40% # Number of instructions fetched each cycle (Total) (Count)
system.cpu.fetch.nisnDist::7                     8392      7.59%     81.99% # Number of instructions fetched each cycle (Total) (Count)
system.cpu.fetch.nisnDist::8                    19913     18.01%    100.00% # Number of instructions fetched each cycle (Total) (Count)
system.cpu.fetch.nisnDist::overflows                0      0.00%    100.00% # Number of instructions fetched each cycle (Total) (Count)
system.cpu.fetch.nisnDist::min_value                0                       # Number of instructions fetched each cycle (Total) (Count)
system.cpu.fetch.nisnDist::max_value                8                       # Number of instructions fetched each cycle (Total) (Count)
system.cpu.fetch.nisnDist::total               110546                       # Number of instructions fetched each cycle (Total) (Count)
system.cpu.fetch.branchRate                  0.094582                       # Number of branch fetches per cycle (Ratio)
system.cpu.fetch.rate                        1.029668                       # Number of inst fetches per cycle ((Count/Cycle))
system.cpu.icache.demandHits::cpu.inst          18186                       # number of demand (read+write) hits (Count)
system.cpu.icache.demandHits::total             18186                       # number of demand (read+write) hits (Count)
system.cpu.icache.overallHits::cpu.inst         18186                       # number of overall hits (Count)
system.cpu.icache.overallHits::total            18186                       # number of overall hits (Count)
system.cpu.icache.demandMisses::cpu.inst          616                       # number of demand (read+write) misses (Count)
system.cpu.icache.demandMisses::total             616                       # number of demand (read+write) misses (Count)
system.cpu.icache.overallMisses::cpu.inst          616                       # number of overall misses (Count)
system.cpu.icache.overallMisses::total            616                       # number of overall misses (Count)
system.cpu.icache.demandMissLatency::cpu.inst     60067999                       # number of demand (read+write) miss ticks (Tick)
system.cpu.icache.demandMissLatency::total     60067999                       # number of demand (read+write) miss ticks (Tick)
system.cpu.icache.overallMissLatency::cpu.inst     60067999                       # number of overall miss ticks (Tick)
system.cpu.icache.overallMissLatency::total     60067999                       # number of overall miss ticks (Tick)
system.cpu.icache.demandAccesses::cpu.inst        18802                       # number of demand (read+write) accesses (Count)
system.cpu.icache.demandAccesses::total         18802                       # number of demand (read+write) accesses (Count)
system.cpu.icache.overallAccesses::cpu.inst        18802                       # number of overall (read+write) accesses (Count)
system.cpu.icache.overallAccesses::total        18802                       # number of overall (read+write) accesses (Count)
system.cpu.icache.demandMissRate::cpu.inst     0.032762                       # miss rate for demand accesses (Ratio)
system.cpu.icache.demandMissRate::total      0.032762                       # miss rate for demand accesses (Ratio)
system.cpu.icache.overallMissRate::cpu.inst     0.032762                       # miss rate for overall accesses (Ratio)
system.cpu.icache.overallMissRate::total     0.032762                       # miss rate for overall accesses (Ratio)
system.cpu.icache.demandAvgMissLatency::cpu.inst 97512.985390                       # average overall miss latency ((Cycle/Count))
system.cpu.icache.demandAvgMissLatency::total 97512.985390                       # average overall miss latency ((Cycle/Count))
system.cpu.icache.overallAvgMissLatency::cpu.inst 97512.985390                       # average overall miss latency ((Cycle/Count))
system.cpu.icache.overallAvgMissLatency::total 97512.985390                       # average overall miss latency ((Cycle/Count))
system.cpu.icache.blockedCycles::no_mshrs          236                       # number of cycles access was blocked (Cycle)
system.cpu.icache.blockedCycles::no_targets            0                       # number of cycles access was blocked (Cycle)
system.cpu.icache.blockedCauses::no_mshrs            5                       # number of times access was blocked (Count)
system.cpu.icache.blockedCauses::no_targets            0                       # number of times access was blocked (Count)
system.cpu.icache.avgBlocked::no_mshrs      47.200000                       # average number of cycles each access was blocked ((Cycle/Count))
system.cpu.icache.avgBlocked::no_targets          nan                       # average number of cycles each access was blocked ((Cycle/Count))
system.cpu.icache.demandMshrHits::cpu.inst          134                       # number of demand (read+write) MSHR hits (Count)
system.cpu.icache.demandMshrHits::total           134                       # number of demand (read+write) MSHR hits (Count)
system.cpu.icache.overallMshrHits::cpu.inst          134                       # number of overall MSHR hits (Count)
system.cpu.icache.overallMshrHits::total          134                       # number of overall MSHR hits (Count)
system.cpu.icache.demandMshrMisses::cpu.inst          482                       # number of demand (read+write) MSHR misses (Count)
system.cpu.icache.demandMshrMisses::total          482                       # number of demand (read+write) MSHR misses (Count)
system.cpu.icache.overallMshrMisses::cpu.inst          482                       # number of overall MSHR misses (Count)
system.cpu.icache.overallMshrMisses::total          482                       # number of overall MSHR misses (Count)
system.cpu.icache.demandMshrMissLatency::cpu.inst     48529999                       # number of demand (read+write) MSHR miss ticks (Tick)
system.cpu.icache.demandMshrMissLatency::total     48529999                       # number of demand (read+write) MSHR miss ticks (Tick)
system.cpu.icache.overallMshrMissLatency::cpu.inst     48529999                       # number of overall MSHR miss ticks (Tick)
system.cpu.icache.overallMshrMissLatency::total     48529999                       # number of overall MSHR miss ticks (Tick)
system.cpu.icache.demandMshrMissRate::cpu.inst     0.025636                       # mshr miss ratio for demand accesses (Ratio)
system.cpu.icache.demandMshrMissRate::total     0.025636                       # mshr miss ratio for demand accesses (Ratio)
system.cpu.icache.overallMshrMissRate::cpu.inst     0.025636                       # mshr miss ratio for overall accesses (Ratio)
system.cpu.icache.overallMshrMissRate::total     0.025636                       # mshr miss ratio for overall accesses (Ratio)
system.cpu.icache.demandAvgMshrMissLatency::cpu.inst 100684.645228                       # average overall mshr miss latency ((Cycle/Count))
system.cpu.icache.demandAvgMshrMissLatency::total 100684.645228                       # average overall mshr miss latency ((Cycle/Count))
system.cpu.icache.overallAvgMshrMissLatency::cpu.inst 100684.645228                       # average overall mshr miss latency ((Cycle/Count))
system.cpu.icache.overallAvgMshrMissLatency::total 100684.645228                       # average overall mshr miss latency ((Cycle/Count))
system.cpu.icache.replacements                    236                       # number of replacements (Count)
system.cpu.icache.ReadReq.hits::cpu.inst        18186                       # number of ReadReq hits (Count)
system.cpu.icache.ReadReq.hits::total           18186                       # number of ReadReq hits (Count)
system.cpu.icache.ReadReq.misses::cpu.inst          616                       # number of ReadReq misses (Count)
system.cpu.icache.ReadReq.misses::total           616                       # number of ReadReq misses (Count)
system.cpu.icache.ReadReq.missLatency::cpu.inst     60067999                       # number of ReadReq miss ticks (Tick)
system.cpu.icache.ReadReq.missLatency::total     60067999                       # number of ReadReq miss ticks (Tick)
system.cpu.icache.ReadReq.accesses::cpu.inst        18802                       # number of ReadReq accesses(hits+misses) (Count)
system.cpu.icache.ReadReq.accesses::total        18802                       # number of ReadReq accesses(hits+misses) (Count)
system.cpu.icache.ReadReq.missRate::cpu.inst     0.032762                       # miss rate for ReadReq accesses (Ratio)
system.cpu.icache.ReadReq.missRate::total     0.032762                       # miss rate for ReadReq accesses (Ratio)
system.cpu.icache.ReadReq.avgMissLatency::cpu.inst 97512.985390                       # average ReadReq miss latency ((Tick/Count))
system.cpu.icache.ReadReq.avgMissLatency::total 97512.985390                       # average ReadReq miss latency ((Tick/Count))
system.cpu.icache.ReadReq.mshrHits::cpu.inst          134                       # number of ReadReq MSHR hits (Count)
system.cpu.icache.ReadReq.mshrHits::total          134                       # number of ReadReq MSHR hits (Count)
system.cpu.icache.ReadReq.mshrMisses::cpu.inst          482                       # number of ReadReq MSHR misses (Count)
system.cpu.icache.ReadReq.mshrMisses::total          482                       # number of ReadReq MSHR misses (Count)
system.cpu.icache.ReadReq.mshrMissLatency::cpu.inst     48529999                       # number of ReadReq MSHR miss ticks (Tick)
system.cpu.icache.ReadReq.mshrMissLatency::total     48529999                       # number of ReadReq MSHR miss ticks (Tick)
system.cpu.icache.ReadReq.mshrMissRate::cpu.inst     0.025636                       # mshr miss rate for ReadReq accesses (Ratio)
system.cpu.icache.ReadReq.mshrMissRate::total     0.025636                       # mshr miss rate for ReadReq accesses (Ratio)
system.cpu.icache.ReadReq.avgMshrMissLatency::cpu.inst 100684.645228                       # average ReadReq mshr miss latency ((Tick/Count))
system.cpu.icache.ReadReq.avgMshrMissLatency::total 100684.645228                       # average ReadReq mshr miss latency ((Tick/Count))
system.cpu.icache.power_state.pwrStateResidencyTicks::UNDEFINED    130542000                       # Cumulative time (in ticks) in various power states (Tick)
system.cpu.icache.tags.tagsInUse           209.394578                       # Average ticks per tags in use ((Tick/Count))
system.cpu.icache.tags.totalRefs                18667                       # Total number of references to valid blocks. (Count)
system.cpu.icache.tags.sampledRefs                481                       # Sample count of references to valid blocks. (Count)
system.cpu.icache.tags.avgRefs              38.808732                       # Average number of references to valid blocks. ((Count/Count))
system.cpu.icache.tags.warmupTick              107000                       # The tick when the warmup percentage was hit. (Tick)
system.cpu.icache.tags.occupancies::cpu.inst   209.394578                       # Average occupied blocks per tick, per requestor ((Count/Tick))
system.cpu.icache.tags.avgOccs::cpu.inst     0.817948                       # Average percentage of cache occupancy ((Ratio/Tick))
system.cpu.icache.tags.avgOccs::total        0.817948                       # Average percentage of cache occupancy ((Ratio/Tick))
system.cpu.icache.tags.occupanciesTaskId::1024          245                       # Occupied blocks per task id (Count)
system.cpu.icache.tags.ageTaskId_1024::0           39                       # Occupied blocks per task id, per block age (Count)
system.cpu.icache.tags.ageTaskId_1024::1          131                       # Occupied blocks per task id, per block age (Count)
system.cpu.icache.tags.ageTaskId_1024::2           75                       # Occupied blocks per task id, per block age (Count)
system.cpu.icache.tags.ratioOccsTaskId::1024     0.957031                       # Ratio of occupied blocks and all blocks, per task id (Ratio)
system.cpu.icache.tags.tagAccesses              38085                       # Number of tag accesses (Count)
system.cpu.icache.tags.dataAccesses             38085                       # Number of data accesses (Count)
system.cpu.icache.tags.power_state.pwrStateResidencyTicks::UNDEFINED    130542000                       # Cumulative time (in ticks) in various power states (Tick)
system.cpu.interrupts.clk_domain.clock          16000                       # Clock period in ticks (Tick)
system.cpu.lsq0.forwLoads                         211                       # Number of loads that had data forwarded from stores (Count)
system.cpu.lsq0.squashedLoads                    1629                       # Number of loads squashed (Count)
system.cpu.lsq0.ignoredResponses                    1                       # Number of memory responses ignored because the instruction is squashed (Count)
system.cpu.lsq0.memOrderViolation                  13                       # Number of memory ordering violations (Count)
system.cpu.lsq0.squashedStores                   1087                       # Number of stores squashed (Count)
system.cpu.lsq0.rescheduledLoads                    1                       # Number of loads that were rescheduled (Count)
system.cpu.lsq0.blockedByCache                    111                       # Number of times an access to memory failed due to the cache being blocked (Count)
system.cpu.lsq0.loadToUse::samples              75288                       # Distribution of cycle latency between the first time a load is issued and its completion (Unspecified)
system.cpu.lsq0.loadToUse::mean              5.768980                       # Distribution of cycle latency between the first time a load is issued and its completion (Unspecified)
system.cpu.lsq0.loadToUse::stdev            18.124246                       # Distribution of cycle latency between the first time a load is issued and its completion (Unspecified)
system.cpu.lsq0.loadToUse::0-9                  73429     97.53%     97.53% # Distribution of cycle latency between the first time a load is issued and its completion (Unspecified)
system.cpu.lsq0.loadToUse::10-19                  455      0.60%     98.14% # Distribution of cycle latency between the first time a load is issued and its completion (Unspecified)
system.cpu.lsq0.loadToUse::20-29                  447      0.59%     98.73% # Distribution of cycle latency between the first time a load is issued and its completion (Unspecified)
system.cpu.lsq0.loadToUse::30-39                  505      0.67%     99.40% # Distribution of cycle latency between the first time a load is issued and its completion (Unspecified)
system.cpu.lsq0.loadToUse::50-59                    4      0.01%     99.40% # Distribution of cycle latency between the first time a load is issued and its completion (Unspecified)
system.cpu.lsq0.loadToUse::70-79                    3      0.00%     99.41% # Distribution of cycle latency between the first time a load is issued and its completion (Unspecified)
system.cpu.lsq0.loadToUse::80-89                   10      0.01%     99.42% # Distribution of cycle latency between the first time a load is issued and its completion (Unspecified)
system.cpu.lsq0.loadToUse::90-99                   22      0.03%     99.45% # Distribution of cycle latency between the first time a load is issued and its completion (Unspecified)
system.cpu.lsq0.loadToUse::100-109                 25      0.03%     99.48% # Distribution of cycle latency between the first time a load is issued and its completion (Unspecified)
system.cpu.lsq0.loadToUse::110-119                 45      0.06%     99.54% # Distribution of cycle latency between the first time a load is issued and its completion (Unspecified)
system.cpu.lsq0.loadToUse::120-129                 55      0.07%     99.62% # Distribution of cycle latency between the first time a load is issued and its completion (Unspecified)
system.cpu.lsq0.loadToUse::130-139                 28      0.04%     99.65% # Distribution of cycle latency between the first time a load is issued and its completion (Unspecified)
system.cpu.lsq0.loadToUse::140-149                  8      0.01%     99.67% # Distribution of cycle latency between the first time a load is issued and its completion (Unspecified)
system.cpu.lsq0.loadToUse::150-159                  7      0.01%     99.67% # Distribution of cycle latency between the first time a load is issued and its completion (Unspecified)
system.cpu.lsq0.loadToUse::160-169                  5      0.01%     99.68% # Distribution of cycle latency between the first time a load is issued and its completion (Unspecified)
system.cpu.lsq0.loadToUse::170-179                 12      0.02%     99.70% # Distribution of cycle latency between the first time a load is issued and its completion (Unspecified)
system.cpu.lsq0.loadToUse::180-189                  2      0.00%     99.70% # Distribution of cycle latency between the first time a load is issued and its completion (Unspecified)
system.cpu.lsq0.loadToUse::210-219                  4      0.01%     99.71% # Distribution of cycle latency between the first time a load is issued and its completion (Unspecified)
system.cpu.lsq0.loadToUse::220-229                  5      0.01%     99.71% # Distribution of cycle latency between the first time a load is issued and its completion (Unspecified)
system.cpu.lsq0.loadToUse::230-239                 15      0.02%     99.73% # Distribution of cycle latency between the first time a load is issued and its completion (Unspecified)
system.cpu.lsq0.loadToUse::240-249                 20      0.03%     99.76% # Distribution of cycle latency between the first time a load is issued and its completion (Unspecified)
system.cpu.lsq0.loadToUse::250-259                 58      0.08%     99.84% # Distribution of cycle latency between the first time a load is issued and its completion (Unspecified)
system.cpu.lsq0.loadToUse::260-269                 35      0.05%     99.88% # Distribution of cycle latency between the first time a load is issued and its completion (Unspecified)
system.cpu.lsq0.loadToUse::270-279                  3      0.00%     99.89% # Distribution of cycle latency between the first time a load is issued and its completion (Unspecified)
system.cpu.lsq0.loadToUse::280-289                  5      0.01%     99.89% # Distribution of cycle latency between the first time a load is issued and its completion (Unspecified)
system.cpu.lsq0.loadToUse::290-299                 12      0.02%     99.91% # Distribution of cycle latency between the first time a load is issued and its completion (Unspecified)
system.cpu.lsq0.loadToUse::overflows               69      0.09%    100.00% # Distribution of cycle latency between the first time a load is issued and its completion (Unspecified)
system.cpu.lsq0.loadToUse::min_value                2                       # Distribution of cycle latency between the first time a load is issued and its completion (Unspecified)
system.cpu.lsq0.loadToUse::max_value              498                       # Distribution of cycle latency between the first time a load is issued and its completion (Unspecified)
system.cpu.lsq0.loadToUse::total                75288                       # Distribution of cycle latency between the first time a load is issued and its completion (Unspecified)
system.cpu.mmu.dtb.rdAccesses                   81084                       # TLB accesses on read requests (Count)
system.cpu.mmu.dtb.wrAccesses                    2254                       # TLB accesses on write requests (Count)
system.cpu.mmu.dtb.rdMisses                        84                       # TLB misses on read requests (Count)
system.cpu.mmu.dtb.wrMisses                        22                       # TLB misses on write requests (Count)
system.cpu.mmu.dtb.walker.power_state.pwrStateResidencyTicks::UNDEFINED    130542000                       # Cumulative time (in ticks) in various power states (Tick)
system.cpu.mmu.itb.rdAccesses                       0                       # TLB accesses on read requests (Count)
[...]
system.victimbus.transDist::ReadExResp            114                       # Transaction distribution (Count)
system.victimbus.transDist::ReadSharedReq        13137                       # Transaction distribution (Count)
system.victimbus.pktCount_system.cpu.dcache.mem_side_port::system.victimcache.cpu_side_port        39523                       # Packet count per connected requestor and responder (Count)
system.victimbus.pktSize_system.cpu.dcache.mem_side_port::system.victimcache.cpu_side_port      1677440                       # Cumulative packet size per connected requestor and responder (Byte)
system.victimbus.snoops                          1346                       # Total snoops (Count)
system.victimbus.snoopTraffic                   86144                       # Total snoop traffic (Byte)
system.victimbus.snoopFanout::samples           14628                       # Request fanout histogram (Count)
system.victimbus.snoopFanout::mean           0.056262                       # Request fanout histogram (Count)
system.victimbus.snoopFanout::stdev          0.230435                       # Request fanout histogram (Count)
system.victimbus.snoopFanout::underflows            0      0.00%      0.00% # Request fanout histogram (Count)
system.victimbus.snoopFanout::0                 13805     94.37%     94.37% # Request fanout histogram (Count)
system.victimbus.snoopFanout::1                   823      5.63%    100.00% # Request fanout histogram (Count)
system.victimbus.snoopFanout::overflows             0      0.00%    100.00% # Request fanout histogram (Count)
system.victimbus.snoopFanout::min_value             0                       # Request fanout histogram (Count)
system.victimbus.snoopFanout::max_value             1                       # Request fanout histogram (Count)
system.victimbus.snoopFanout::total             14628                       # Request fanout histogram (Count)
system.victimbus.power_state.pwrStateResidencyTicks::UNDEFINED    130542000                       # Cumulative time (in ticks) in various power states (Tick)
system.victimbus.reqLayer0.occupancy         39203998                       # Layer occupancy (ticks) (Tick)
system.victimbus.reqLayer0.utilization            0.3                       # Layer utilization (Ratio)
system.victimbus.respLayer0.occupancy        39725794                       # Layer occupancy (ticks) (Tick)
system.victimbus.respLayer0.utilization           0.3                       # Layer utilization (Ratio)
system.victimbus.snoop_filter.totRequests        26243                       # Total number of requests made to the snoop filter. (Count)
system.victimbus.snoop_filter.hitSingleRequests        12992                       # Number of requests hitting in the snoop filter with a single holder of the requested data. (Count)
system.victimbus.snoop_filter.hitMultiRequests            0                       # Number of requests hitting in the snoop filter with multiple (>1) holders of the requested data. (Count)
system.victimbus.snoop_filter.totSnoops           823                       # Total number of snoops made to the snoop filter. (Count)
system.victimbus.snoop_filter.hitSingleSnoops          823                       # Number of snoops hitting in the snoop filter with a single holder of the requested data. (Count)
system.victimbus.snoop_filter.hitMultiSnoops            0                       # Number of snoops hitting in the snoop filter with multiple (>1) holders of the requested data. (Count)
system.victimcache.demandHits::cpu.data         12428                       # number of demand (read+write) hits (Count)
system.victimcache.demandHits::total            12428                       # number of demand (read+write) hits (Count)
system.victimcache.overallHits::cpu.data        12428                       # number of overall hits (Count)
system.victimcache.overallHits::total           12428                       # number of overall hits (Count)
system.victimcache.demandMisses::cpu.data          823                       # number of demand (read+write) misses (Count)
system.victimcache.demandMisses::total            823                       # number of demand (read+write) misses (Count)
system.victimcache.overallMisses::cpu.data          823                       # number of overall misses (Count)
system.victimcache.overallMisses::total           823                       # number of overall misses (Count)
system.victimcache.demandMissLatency::cpu.data     48458000                       # number of demand (read+write) miss ticks (Tick)
system.victimcache.demandMissLatency::total     48458000                       # number of demand (read+write) miss ticks (Tick)
system.victimcache.overallMissLatency::cpu.data     48458000                       # number of overall miss ticks (Tick)
system.victimcache.overallMissLatency::total     48458000                       # number of overall miss ticks (Tick)
system.victimcache.demandAccesses::cpu.data        13251                       # number of demand (read+write) accesses (Count)
system.victimcache.demandAccesses::total        13251                       # number of demand (read+write) accesses (Count)
system.victimcache.overallAccesses::cpu.data        13251                       # number of overall (read+write) accesses (Count)
system.victimcache.overallAccesses::total        13251                       # number of overall (read+write) accesses (Count)
system.victimcache.demandMissRate::cpu.data     0.062109                       # miss rate for demand accesses (Ratio)
system.victimcache.demandMissRate::total     0.062109                       # miss rate for demand accesses (Ratio)
system.victimcache.overallMissRate::cpu.data     0.062109                       # miss rate for overall accesses (Ratio)
system.victimcache.overallMissRate::total     0.062109                       # miss rate for overall accesses (Ratio)
system.victimcache.demandAvgMissLatency::cpu.data 58879.708384                       # average overall miss latency ((Cycle/Count))
system.victimcache.demandAvgMissLatency::total 58879.708384                       # average overall miss latency ((Cycle/Count))
system.victimcache.overallAvgMissLatency::cpu.data 58879.708384                       # average overall miss latency ((Cycle/Count))
system.victimcache.overallAvgMissLatency::total 58879.708384                       # average overall miss latency ((Cycle/Count))
system.victimcache.blockedCycles::no_mshrs         2590                       # number of cycles access was blocked (Cycle)
system.victimcache.blockedCycles::no_targets            0                       # number of cycles access was blocked (Cycle)
system.victimcache.blockedCauses::no_mshrs           51                       # number of times access was blocked (Count)
system.victimcache.blockedCauses::no_targets            0                       # number of times access was blocked (Count)
system.victimcache.avgBlocked::no_mshrs     50.784314                       # average number of cycles each access was blocked ((Cycle/Count))
system.victimcache.avgBlocked::no_targets          nan                       # average number of cycles each access was blocked ((Cycle/Count))
system.victimcache.writebacks::writebacks         1346                       # number of writebacks (Count)
system.victimcache.writebacks::total             1346                       # number of writebacks (Count)
system.victimcache.demandMshrMisses::cpu.data          823                       # number of demand (read+write) MSHR misses (Count)
system.victimcache.demandMshrMisses::total          823                       # number of demand (read+write) MSHR misses (Count)
system.victimcache.overallMshrMisses::cpu.data          823                       # number of overall MSHR misses (Count)
system.victimcache.overallMshrMisses::total          823                       # number of overall MSHR misses (Count)
system.victimcache.demandMshrMissLatency::cpu.data     48458000                       # number of demand (read+write) MSHR miss ticks (Tick)
system.victimcache.demandMshrMissLatency::total     48458000                       # number of demand (read+write) MSHR miss ticks (Tick)
system.victimcache.overallMshrMissLatency::cpu.data     48458000                       # number of overall MSHR miss ticks (Tick)
system.victimcache.overallMshrMissLatency::total     48458000                       # number of overall MSHR miss ticks (Tick)
system.victimcache.demandMshrMissRate::cpu.data     0.062109                       # mshr miss ratio for demand accesses (Ratio)
system.victimcache.demandMshrMissRate::total     0.062109                       # mshr miss ratio for demand accesses (Ratio)
system.victimcache.overallMshrMissRate::cpu.data     0.062109                       # mshr miss ratio for overall accesses (Ratio)
system.victimcache.overallMshrMissRate::total     0.062109                       # mshr miss ratio for overall accesses (Ratio)
system.victimcache.demandAvgMshrMissLatency::cpu.data 58879.708384                       # average overall mshr miss latency ((Cycle/Count))
system.victimcache.demandAvgMshrMissLatency::total 58879.708384                       # average overall mshr miss latency ((Cycle/Count))
system.victimcache.overallAvgMshrMissLatency::cpu.data 58879.708384                       # average overall mshr miss latency ((Cycle/Count))
system.victimcache.overallAvgMshrMissLatency::total 58879.708384                       # average overall mshr miss latency ((Cycle/Count))
system.victimcache.replacements                   523                       # number of replacements (Count)
system.victimcache.ReadExReq.misses::cpu.data          114                       # number of ReadExReq misses (Count)
system.victimcache.ReadExReq.misses::total          114                       # number of ReadExReq misses (Count)
system.victimcache.ReadExReq.missLatency::cpu.data     11791000                       # number of ReadExReq miss ticks (Tick)
system.victimcache.ReadExReq.missLatency::total     11791000                       # number of ReadExReq miss ticks (Tick)
system.victimcache.ReadExReq.accesses::cpu.data          114                       # number of ReadExReq accesses(hits+misses) (Count)
system.victimcache.ReadExReq.accesses::total          114                       # number of ReadExReq accesses(hits+misses) (Count)
system.victimcache.ReadExReq.missRate::cpu.data            1                       # miss rate for ReadExReq accesses (Ratio)
system.victimcache.ReadExReq.missRate::total            1                       # miss rate for ReadExReq accesses (Ratio)
system.victimcache.ReadExReq.avgMissLatency::cpu.data 103429.824561                       # average ReadExReq miss latency ((Tick/Count))
system.victimcache.ReadExReq.avgMissLatency::total 103429.824561                       # average ReadExReq miss latency ((Tick/Count))
system.victimcache.ReadExReq.mshrMisses::cpu.data          114                       # number of ReadExReq MSHR misses (Count)
system.victimcache.ReadExReq.mshrMisses::total          114                       # number of ReadExReq MSHR misses (Count)
system.victimcache.ReadExReq.mshrMissLatency::cpu.data     11791000                       # number of ReadExReq MSHR miss ticks (Tick)
system.victimcache.ReadExReq.mshrMissLatency::total     11791000                       # number of ReadExReq MSHR miss ticks (Tick)
system.victimcache.ReadExReq.mshrMissRate::cpu.data            1                       # mshr miss rate for ReadExReq accesses (Ratio)
system.victimcache.ReadExReq.mshrMissRate::total            1                       # mshr miss rate for ReadExReq accesses (Ratio)
system.victimcache.ReadExReq.avgMshrMissLatency::cpu.data 103429.824561                       # average ReadExReq mshr miss latency ((Tick/Count))
system.victimcache.ReadExReq.avgMshrMissLatency::total 103429.824561                       # average ReadExReq mshr miss latency ((Tick/Count))
system.victimcache.ReadSharedReq.hits::cpu.data        12428                       # number of ReadSharedReq hits (Count)
system.victimcache.ReadSharedReq.hits::total        12428                       # number of ReadSharedReq hits (Count)
system.victimcache.ReadSharedReq.misses::cpu.data          709                       # number of ReadSharedReq misses (Count)
system.victimcache.ReadSharedReq.misses::total          709                       # number of ReadSharedReq misses (Count)
system.victimcache.ReadSharedReq.missLatency::cpu.data     36667000                       # number of ReadSharedReq miss ticks (Tick)
system.victimcache.ReadSharedReq.missLatency::total     36667000                       # number of ReadSharedReq miss ticks (Tick)
system.victimcache.ReadSharedReq.accesses::cpu.data        13137                       # number of ReadSharedReq accesses(hits+misses) (Count)
system.victimcache.ReadSharedReq.accesses::total        13137                       # number of ReadSharedReq accesses(hits+misses) (Count)
system.victimcache.ReadSharedReq.missRate::cpu.data     0.053970                       # miss rate for ReadSharedReq accesses (Ratio)
system.victimcache.ReadSharedReq.missRate::total     0.053970                       # miss rate for ReadSharedReq accesses (Ratio)
system.victimcache.ReadSharedReq.avgMissLatency::cpu.data 51716.502116                       # average ReadSharedReq miss latency ((Tick/Count))
system.victimcache.ReadSharedReq.avgMissLatency::total 51716.502116                       # average ReadSharedReq miss latency ((Tick/Count))
system.victimcache.ReadSharedReq.mshrMisses::cpu.data          709                       # number of ReadSharedReq MSHR misses (Count)
system.victimcache.ReadSharedReq.mshrMisses::total          709                       # number of ReadSharedReq MSHR misses (Count)
system.victimcache.ReadSharedReq.mshrMissLatency::cpu.data     36667000                       # number of ReadSharedReq MSHR miss ticks (Tick)
system.victimcache.ReadSharedReq.mshrMissLatency::total     36667000                       # number of ReadSharedReq MSHR miss ticks (Tick)
system.victimcache.ReadSharedReq.mshrMissRate::cpu.data     0.053970                       # mshr miss rate for ReadSharedReq accesses (Ratio)
system.victimcache.ReadSharedReq.mshrMissRate::total     0.053970                       # mshr miss rate for ReadSharedReq accesses (Ratio)
system.victimcache.ReadSharedReq.avgMshrMissLatency::cpu.data 51716.502116                       # average ReadSharedReq mshr miss latency ((Tick/Count))
system.victimcache.ReadSharedReq.avgMshrMissLatency::total 51716.502116                       # average ReadSharedReq mshr miss latency ((Tick/Count))
system.victimcache.UpgradeReq.misses::cpu.data           31                       # number of UpgradeReq misses (Count)
system.victimcache.UpgradeReq.misses::total           31                       # number of UpgradeReq misses (Count)
system.victimcache.UpgradeReq.accesses::cpu.data           31                       # number of UpgradeReq accesses(hits+misses) (Count)
system.victimcache.UpgradeReq.accesses::total           31                       # number of UpgradeReq accesses(hits+misses) (Count)
system.victimcache.UpgradeReq.missRate::cpu.data            1                       # miss rate for UpgradeReq accesses (Ratio)
system.victimcache.UpgradeReq.missRate::total            1                       # miss rate for UpgradeReq accesses (Ratio)
system.victimcache.UpgradeReq.mshrMisses::cpu.data           31                       # number of UpgradeReq MSHR misses (Count)
system.victimcache.UpgradeReq.mshrMisses::total           31                       # number of UpgradeReq MSHR misses (Count)
system.victimcache.UpgradeReq.mshrMissLatency::cpu.data      1641000                       # number of UpgradeReq MSHR miss ticks (Tick)
system.victimcache.UpgradeReq.mshrMissLatency::total      1641000                       # number of UpgradeReq MSHR miss ticks (Tick)
system.victimcache.UpgradeReq.mshrMissRate::cpu.data            1                       # mshr miss rate for UpgradeReq accesses (Ratio)
system.victimcache.UpgradeReq.mshrMissRate::total            1                       # mshr miss rate for UpgradeReq accesses (Ratio)
system.victimcache.UpgradeReq.avgMshrMissLatency::cpu.data 52935.483871                       # average UpgradeReq mshr miss latency ((Tick/Count))
system.victimcache.UpgradeReq.avgMshrMissLatency::total 52935.483871                       # average UpgradeReq mshr miss latency ((Tick/Count))
system.victimcache.WritebackClean.hits::writebacks        12956                       # number of WritebackClean hits (Count)
system.victimcache.WritebackClean.hits::total        12956                       # number of WritebackClean hits (Count)
system.victimcache.WritebackClean.accesses::writebacks        12956                       # number of WritebackClean accesses(hits+misses) (Count)
system.victimcache.WritebackClean.accesses::total        12956                       # number of WritebackClean accesses(hits+misses) (Count)
system.victimcache.WritebackDirty.hits::writebacks            3                       # number of WritebackDirty hits (Count)
system.victimcache.WritebackDirty.hits::total            3                       # number of WritebackDirty hits (Count)
system.victimcache.WritebackDirty.accesses::writebacks            3                       # number of WritebackDirty accesses(hits+misses) (Count)
system.victimcache.WritebackDirty.accesses::total            3                       # number of WritebackDirty accesses(hits+misses) (Count)
system.victimcache.power_state.pwrStateResidencyTicks::UNDEFINED    130542000                       # Cumulative time (in ticks) in various power states (Tick)
system.victimcache.tags.tagsInUse            4.803060                       # Average ticks per tags in use ((Tick/Count))
system.victimcache.tags.totalRefs               25387                       # Total number of references to valid blocks. (Count)
system.victimcache.tags.sampledRefs             12959                       # Sample count of references to valid blocks. (Count)
system.victimcache.tags.avgRefs              1.959025                       # Average number of references to valid blocks. ((Count/Count))
system.victimcache.tags.warmupTick           47084000                       # The tick when the warmup percentage was hit. (Tick)
system.victimcache.tags.occupancies::writebacks     4.803060                       # Average occupied blocks per tick, per requestor ((Count/Tick))
system.victimcache.tags.avgOccs::writebacks     0.600382                       # Average percentage of cache occupancy ((Ratio/Tick))
system.victimcache.tags.avgOccs::total       0.600382                       # Average percentage of cache occupancy ((Ratio/Tick))
system.victimcache.tags.occupanciesTaskId::1024            8                       # Occupied blocks per task id (Count)
system.victimcache.tags.ageTaskId_1024::0            8                       # Occupied blocks per task id, per block age (Count)
system.victimcache.tags.ratioOccsTaskId::1024            1                       # Ratio of occupied blocks and all blocks, per task id (Ratio)
system.victimcache.tags.tagAccesses            222887                       # Number of tag accesses (Count)
system.victimcache.tags.dataAccesses           222887                       # Number of data accesses (Count)
system.victimcache.tags.power_state.pwrStateResidencyTicks::UNDEFINED    130542000                       # Cumulative time (in ticks) in various power states (Tick)
system.workload.inst.arm                            0                       # number of arm instructions executed (Count)
system.workload.inst.quiesce                        0                       # number of quiesce instructions executed (Count)

---------- End Simulation Statistics   ----------
