
---------- Begin Simulation Statistics ----------
simSeconds                                   0.000230                       # Number of seconds simulated (Second)
simTicks                                    230279000                       # Number of ticks simulated (Tick)
finalTick                                   230279000                       # Number of ticks from beginning of simulation (restored from checkpoints and never reset) (Tick)
simFreq                                  1000000000000                       # The number of ticks per simulated second ((Tick/Second))
hostSeconds                                      0.74                       # Real time elapsed on the host (Second)
hostTickRate                                311441983                       # The number of ticks simulated per host second (ticks/s) ((Tick/Second))
hostMemory                                     645992                       # Number of bytes of host memory used (Byte)
simInsts                                       123103                       # Number of instructions simulated (Count)
simOps                                         245705                       # Number of ops (including micro ops) simulated (Count)
hostInstRate                                   166460                       # Simulator instruction rate (inst/s) ((Count/Second))
hostOpRate                                     332238                       # Simulator op (including micro ops) rate (op/s) ((Count/Second))
system.clk_domain.clock                          1000                       # Clock period in ticks (Tick)
system.clk_domain.voltage_domain.voltage            1                       # Voltage in Volts (Volt)
system.cpu.numCycles                           230280                       # Number of cpu cycles simulated (Cycle)
system.cpu.numWorkItemsStarted                      0                       # Number of work items this cpu started (Count)
system.cpu.numWorkItemsCompleted                    0                       # Number of work items this cpu completed (Count)
system.cpu.instsAdded                          258760                       # Number of instructions added to the IQ (excludes non-spec) (Count)
system.cpu.nonSpecInstsAdded                       10                       # Number of non-speculative instructions added to the IQ (Count)
system.cpu.instsIssued                         255640                       # Number of instructions issued (Count)
system.cpu.squashedInstsIssued                     27                       # Number of squashed instructions issued (Count)
system.cpu.squashedInstsExamined                13059                       # Number of squashed instructions iterated over during squash; mainly for profiling (Count)
system.cpu.squashedOperandsExamined             14923                       # Number of squashed operands that are examined and possibly removed from graph (Count)
system.cpu.squashedNonSpecRemoved                  10                       # Number of squashed non-spec instructions that were removed (Count)
system.cpu.numIssuedDist::samples              210468                       # Number of insts issued each cycle (Count)
system.cpu.numIssuedDist::mean               1.214626                       # Number of insts issued each cycle (Count)
system.cpu.numIssuedDist::stdev              1.597161                       # Number of insts issued each cycle (Count)
system.cpu.numIssuedDist::underflows                0      0.00%      0.00% # Number of insts issued each cycle (Count)
system.cpu.numIssuedDist::0                    108250     51.43%     51.43% # Number of insts issued each cycle (Count)
system.cpu.numIssuedDist::1                     29665     14.09%     65.53% # Number of insts issued each cycle (Count)
system.cpu.numIssuedDist::2                     31054     14.75%     80.28% # Number of insts issued each cycle (Count)
system.cpu.numIssuedDist::3                     17920      8.51%     88.80% # Number of insts issued each cycle (Count)
system.cpu.numIssuedDist::4                     13001      6.18%     94.97% # Number of insts issued each cycle (Count)
system.cpu.numIssuedDist::5                      6306      3.00%     97.97% # Number of insts issued each cycle (Count)
system.cpu.numIssuedDist::6                      3601      1.71%     99.68% # Number of insts issued each cycle (Count)
system.cpu.numIssuedDist::7                       401      0.19%     99.87% # Number of insts issued each cycle (Count)
system.cpu.numIssuedDist::8                       270      0.13%    100.00% # Number of insts issued each cycle (Count)
system.cpu.numIssuedDist::overflows                 0      0.00%    100.00% # Number of insts issued each cycle (Count)
system.cpu.numIssuedDist::min_value                 0                       # Number of insts issued each cycle (Count)
system.cpu.numIssuedDist::max_value                 8                       # Number of insts issued each cycle (Count)
system.cpu.numIssuedDist::total                210468                       # Number of insts issued each cycle (Count)
system.cpu.statFuBusy::No_OpClass                   0      0.00%      0.00% # attempts to use FU when none available (Count)
system.cpu.statFuBusy::IntAlu                     183     71.76%     71.76% # attempts to use FU when none available (Count)
system.cpu.statFuBusy::IntMult                      0      0.00%     71.76% # attempts to use FU when none available (Count)
system.cpu.statFuBusy::IntDiv                       0      0.00%     71.76% # attempts to use FU when none available (Count)
system.cpu.statFuBusy::FloatAdd                     0      0.00%     71.76% # attempts to use FU when none available (Count)
system.cpu.statFuBusy::FloatCmp                     0      0.00%     71.76% # attempts to use FU when none available (Count)
system.cpu.statFuBusy::FloatCvt                     0      0.00%     71.76% # attempts to use FU when none available (Count)
system.cpu.statFuBusy::FloatMult                    0      0.00%     71.76% # attempts to use FU when none available (Count)
system.cpu.statFuBusy::FloatMultAcc                 0      0.00%     71.76% # attempts to use FU when none available (Count)
system.cpu.statFuBusy::FloatDiv                     0      0.00%     71.76% # attempts to use FU when none available (Count)
system.cpu.statFuBusy::FloatMisc                    0      0.00%     71.76% # attempts to use FU when none available (Count)
system.cpu.statFuBusy::FloatSqrt                    0      0.00%     71.76% # attempts to use FU when none available (Count)
system.cpu.statFuBusy::SimdAdd                      0      0.00%     71.76% # attempts to use FU when none available (Count)
system.cpu.statFuBusy::SimdAddAcc                   0      0.00%     71.76% # attempts to use FU when none available (Count)
system.cpu.statFuBusy::SimdAlu                     10      3.92%     75.69% # attempts to use FU when none available (Count)
system.cpu.statFuBusy::SimdCmp                      0      0.00%     75.69% # attempts to use FU when none available (Count)
system.cpu.statFuBusy::SimdCvt                      2      0.78%     76.47% # attempts to use FU when none available (Count)
system.cpu.statFuBusy::SimdMisc                     2      0.78%     77.25% # attempts to use FU when none available (Count)
system.cpu.statFuBusy::SimdMult                     0      0.00%     77.25% # attempts to use FU when none available (Count)
system.cpu.statFuBusy::SimdMultAcc                  0      0.00%     77.25% # attempts to use FU when none available (Count)
system.cpu.statFuBusy::SimdShift                    0      0.00%     77.25% # attempts to use FU when none available (Count)
system.cpu.statFuBusy::SimdShiftAcc                 0      0.00%     77.25% # attempts to use FU when none available (Count)
system.cpu.statFuBusy::SimdDiv                      0      0.00%     77.25% # attempts to use FU when none available (Count)
system.cpu.statFuBusy::SimdSqrt                     0      0.00%     77.25% # attempts to use FU when none available (Count)
system.cpu.statFuBusy::SimdFloatAdd                 1      0.39%     77.65% # attempts to use FU when none available (Count)
system.cpu.statFuBusy::SimdFloatAlu                 0      0.00%     77.65% # attempts to use FU when none available (Count)
system.cpu.statFuBusy::SimdFloatCmp                 0      0.00%     77.65% # attempts to use FU when none available (Count)
system.cpu.statFuBusy::SimdFloatCvt                 0      0.00%     77.65% # attempts to use FU when none available (Count)
system.cpu.statFuBusy::SimdFloatDiv                 0      0.00%     77.65% # attempts to use FU when none available (Count)
system.cpu.statFuBusy::SimdFloatMisc                0      0.00%     77.65% # attempts to use FU when none available (Count)
system.cpu.statFuBusy::SimdFloatMult                1      0.39%     78.04% # attempts to use FU when none available (Count)
system.cpu.statFuBusy::SimdFloatMultAcc             0      0.00%     78.04% # attempts to use FU when none available (Count)
system.cpu.statFuBusy::SimdFloatSqrt                0      0.00%     78.04% # attempts to use FU when none available (Count)
system.cpu.statFuBusy::SimdReduceAdd                0      0.00%     78.04% # attempts to use FU when none available (Count)
system.cpu.statFuBusy::SimdReduceAlu                0      0.00%     78.04% # attempts to use FU when none available (Count)
system.cpu.statFuBusy::SimdReduceCmp                0      0.00%     78.04% # attempts to use FU when none available (Count)
system.cpu.statFuBusy::SimdFloatReduceAdd            0      0.00%     78.04% # attempts to use FU when none available (Count)
system.cpu.statFuBusy::SimdFloatReduceCmp            0      0.00%     78.04% # attempts to use FU when none available (Count)
system.cpu.statFuBusy::SimdAes                      0      0.00%     78.04% # attempts to use FU when none available (Count)
system.cpu.statFuBusy::SimdAesMix                   0      0.00%     78.04% # attempts to use FU when none available (Count)
system.cpu.statFuBusy::SimdSha1Hash                 0      0.00%     78.04% # attempts to use FU when none available (Count)
system.cpu.statFuBusy::SimdSha1Hash2                0      0.00%     78.04% # attempts to use FU when none available (Count)
system.cpu.statFuBusy::SimdSha256Hash               0      0.00%     78.04% # attempts to use FU when none available (Count)
system.cpu.statFuBusy::SimdSha256Hash2              0      0.00%     78.04% # attempts to use FU when none available (Count)
system.cpu.statFuBusy::SimdShaSigma2                0      0.00%     78.04% # attempts to use FU when none available (Count)
system.cpu.statFuBusy::SimdShaSigma3                0      0.00%     78.04% # attempts to use FU when none available (Count)
system.cpu.statFuBusy::SimdPredAlu                  0      0.00%     78.04% # attempts to use FU when none available (Count)
system.cpu.statFuBusy::MemRead                     24      9.41%     87.45% # attempts to use FU when none available (Count)
system.cpu.statFuBusy::MemWrite                    13      5.10%     92.55% # attempts to use FU when none available (Count)
system.cpu.statFuBusy::FloatMemRead                 9      3.53%     96.08% # attempts to use FU when none available (Count)
system.cpu.statFuBusy::FloatMemWrite               10      3.92%    100.00% # attempts to use FU when none available (Count)
system.cpu.statFuBusy::IprAccess                    0      0.00%    100.00% # attempts to use FU when none available (Count)
system.cpu.statFuBusy::InstPrefetch                 0      0.00%    100.00% # attempts to use FU when none available (Count)
system.cpu.statIssuedInstType_0::No_OpClass          709      0.28%      0.28% # Number of instructions issued per FU type, per thread (Count)
system.cpu.statIssuedInstType_0::IntAlu        134397     52.57%     52.85% # Number of instructions issued per FU type, per thread (Count)
system.cpu.statIssuedInstType_0::IntMult            6      0.00%     52.85% # Number of instructions issued per FU type, per thread (Count)
system.cpu.statIssuedInstType_0::IntDiv            29      0.01%     52.86% # Number of instructions issued per FU type, per thread (Count)
system.cpu.statIssuedInstType_0::FloatAdd        32964     12.89%     65.76% # Number of instructions issued per FU type, per thread (Count)
system.cpu.statIssuedInstType_0::FloatCmp            0      0.00%     65.76% # Number of instructions issued per FU type, per thread (Count)
system.cpu.statIssuedInstType_0::FloatCvt            0      0.00%     65.76% # Number of instructions issued per FU type, per thread (Count)
system.cpu.statIssuedInstType_0::FloatMult            0      0.00%     65.76% # Number of instructions issued per FU type, per thread (Count)
system.cpu.statIssuedInstType_0::FloatMultAcc            0      0.00%     65.76% # Number of instructions issued per FU type, per thread (Count)
system.cpu.statIssuedInstType_0::FloatDiv            0      0.00%     65.76% # Number of instructions issued per FU type, per thread (Count)
system.cpu.statIssuedInstType_0::FloatMisc            0      0.00%     65.76% # Number of instructions issued per FU type, per thread (Count)
system.cpu.statIssuedInstType_0::FloatSqrt            0      0.00%     65.76% # Number of instructions issued per FU type, per thread (Count)
system.cpu.statIssuedInstType_0::SimdAdd            0      0.00%     65.76% # Number of instructions issued per FU type, per thread (Count)
system.cpu.statIssuedInstType_0::SimdAddAcc            0      0.00%     65.76% # Number of instructions issued per FU type, per thread (Count)
system.cpu.statIssuedInstType_0::SimdAlu          162      0.06%     65.82% # Number of instructions issued per FU type, per thread (Count)
system.cpu.statIssuedInstType_0::SimdCmp            0      0.00%     65.82% # Number of instructions issued per FU type, per thread (Count)
system.cpu.statIssuedInstType_0::SimdCvt           47      0.02%     65.84% # Number of instructions issued per FU type, per thread (Count)
system.cpu.statIssuedInstType_0::SimdMisc          218      0.09%     65.93% # Number of instructions issued per FU type, per thread (Count)
system.cpu.statIssuedInstType_0::SimdMult            0      0.00%     65.93% # Number of instructions issued per FU type, per thread (Count)
system.cpu.statIssuedInstType_0::SimdMultAcc            0      0.00%     65.93% # Number of instructions issued per FU type, per thread (Count)
system.cpu.statIssuedInstType_0::SimdShift            0      0.00%     65.93% # Number of instructions issued per FU type, per thread (Count)
system.cpu.statIssuedInstType_0::SimdShiftAcc            0      0.00%     65.93% # Number of instructions issued per FU type, per thread (Count)
system.cpu.statIssuedInstType_0::SimdDiv            0      0.00%     65.93% # Number of instructions issued per FU type, per thread (Count)
system.cpu.statIssuedInstType_0::SimdSqrt            0      0.00%     65.93% # Number of instructions issued per FU type, per thread (Count)
system.cpu.statIssuedInstType_0::SimdFloatAdd        16399      6.41%     72.34% # Number of instructions issued per FU type, per thread (Count)
system.cpu.statIssuedInstType_0::SimdFloatAlu            0      0.00%     72.34% # Number of instructions issued per FU type, per thread (Count)
system.cpu.statIssuedInstType_0::SimdFloatCmp            0      0.00%     72.34% # Number of instructions issued per FU type, per thread (Count)
system.cpu.statIssuedInstType_0::SimdFloatCvt            2      0.00%     72.34% # Number of instructions issued per FU type, per thread (Count)
system.cpu.statIssuedInstType_0::SimdFloatDiv            0      0.00%     72.34% # Number of instructions issued per FU type, per thread (Count)
system.cpu.statIssuedInstType_0::SimdFloatMisc            0      0.00%     72.34% # Number of instructions issued per FU type, per thread (Count)
system.cpu.statIssuedInstType_0::SimdFloatMult        16396      6.41%     78.75% # Number of instructions issued per FU type, per thread (Count)
system.cpu.statIssuedInstType_0::SimdFloatMultAcc            0      0.00%     78.75% # Number of instructions issued per FU type, per thread (Count)
system.cpu.statIssuedInstType_0::SimdFloatSqrt            0      0.00%     78.75% # Number of instructions issued per FU type, per thread (Count)
system.cpu.statIssuedInstType_0::SimdReduceAdd            0      0.00%     78.75% # Number of instructions issued per FU type, per thread (Count)
system.cpu.statIssuedInstType_0::SimdReduceAlu            0      0.00%     78.75% # Number of instructions issued per FU type, per thread (Count)
system.cpu.statIssuedInstType_0::SimdReduceCmp            0      0.00%     78.75% # Number of instructions issued per FU type, per thread (Count)
system.cpu.statIssuedInstType_0::SimdFloatReduceAdd            0      0.00%     78.75% # Number of instructions issued per FU type, per thread (Count)
system.cpu.statIssuedInstType_0::SimdFloatReduceCmp            0      0.00%     78.75% # Number of instructions issued per FU type, per thread (Count)
system.cpu.statIssuedInstType_0::SimdAes            0      0.00%     78.75% # Number of instructions issued per FU type, per thread (Count)
system.cpu.statIssuedInstType_0::SimdAesMix            0      0.00%     78.75% # Number of instructions issued per FU type, per thread (Count)
system.cpu.statIssuedInstType_0::SimdSha1Hash            0      0.00%     78.75% # Number of instructions issued per FU type, per thread (Count)
system.cpu.statIssuedInstType_0::SimdSha1Hash2            0      0.00%     78.75% # Number of instructions issued per FU type, per thread (Count)
system.cpu.statIssuedInstType_0::SimdSha256Hash            0      0.00%     78.75% # Number of instructions issued per FU type, per thread (Count)
system.cpu.statIssuedInstType_0::SimdSha256Hash2            0      0.00%     78.75% # Number of instructions issued per FU type, per thread (Count)
system.cpu.statIssuedInstType_0::SimdShaSigma2            0      0.00%     78.75% # Number of instructions issued per FU type, per thread (Count)
system.cpu.statIssuedInstType_0::SimdShaSigma3            0      0.00%     78.75% # Number of instructions issued per FU type, per thread (Count)
system.cpu.statIssuedInstType_0::SimdPredAlu            0      0.00%     78.75% # Number of instructions issued per FU type, per thread (Count)
system.cpu.statIssuedInstType_0::MemRead         2769      1.08%     79.84% # Number of instructions issued per FU type, per thread (Count)
system.cpu.statIssuedInstType_0::MemWrite         1692      0.66%     80.50% # Number of instructions issued per FU type, per thread (Count)
system.cpu.statIssuedInstType_0::FloatMemRead        32924     12.88%     93.38% # Number of instructions issued per FU type, per thread (Count)
system.cpu.statIssuedInstType_0::FloatMemWrite        16926      6.62%    100.00% # Number of instructions issued per FU type, per thread (Count)
system.cpu.statIssuedInstType_0::IprAccess            0      0.00%    100.00% # Number of instructions issued per FU type, per thread (Count)
system.cpu.statIssuedInstType_0::InstPrefetch            0      0.00%    100.00% # Number of instructions issued per FU type, per thread (Count)
system.cpu.statIssuedInstType_0::total         255640                       # Number of instructions issued per FU type, per thread (Count)
system.cpu.issueRate                         1.110127                       # Inst issue rate ((Count/Cycle))
system.cpu.fuBusy                                 255                       # FU busy when requested (Count)
system.cpu.fuBusyRate                        0.000997                       # FU busy rate (busy events/executed inst) ((Count/Count))
system.cpu.intInstQueueReads                   489608                       # Number of integer instruction queue reads (Count)
system.cpu.intInstQueueWrites                  155062                       # Number of integer instruction queue writes (Count)
system.cpu.intInstQueueWakeupAccesses          137949                       # Number of integer instruction queue wakeup accesses (Count)
system.cpu.fpInstQueueReads                    232422                       # Number of floating instruction queue reads (Count)
system.cpu.fpInstQueueWrites                   116785                       # Number of floating instruction queue writes (Count)
system.cpu.fpInstQueueWakeupAccesses           116100                       # Number of floating instruction queue wakeup accesses (Count)
system.cpu.vecInstQueueReads                        0                       # Number of vector instruction queue reads (Count)
system.cpu.vecInstQueueWrites                       0                       # Number of vector instruction queue writes (Count)
system.cpu.vecInstQueueWakeupAccesses               0                       # Number of vector instruction queue wakeup accesses (Count)
system.cpu.intAluAccesses                      138962                       # Number of integer alu accesses (Count)
system.cpu.fpAluAccesses                       116224                       # Number of floating point alu accesses (Count)
system.cpu.vecAluAccesses                           0                       # Number of vector alu accesses (Count)
system.cpu.idleCycles                               0                       # Number of cycles IEW is idle (Cycle)
system.cpu.squashCycles                           642                       # Number of cycles IEW is squashing (Cycle)
system.cpu.blockCycles                           3464                       # Number of cycles IEW is blocking (Cycle)
system.cpu.unblockCycles                          783                       # Number of cycles IEW is unblocking (Cycle)
system.cpu.dispatchedInsts                     258770                       # Number of instructions dispatched to IQ (Count)
system.cpu.dispSquashedInsts                       87                       # Number of squashed instructions skipped by dispatch (Count)
system.cpu.dispLoadInsts                        35955                       # Number of dispatched load instructions (Count)
system.cpu.dispStoreInsts                       18988                       # Number of dispatched store instructions (Count)
system.cpu.dispNonSpecInsts                         4                       # Number of dispatched non-speculative instructions (Count)
system.cpu.iqFullEvents                            42                       # Number of times the IQ has become full, causing a stall (Count)
system.cpu.lsqFullEvents                          730                       # Number of times the LSQ has become full, causing a stall (Count)
system.cpu.memOrderViolationEvents                 27                       # Number of memory order violations (Count)
system.cpu.predictedTakenIncorrect                 59                       # Number of branches that were predicted taken incorrectly (Count)
system.cpu.predictedNotTakenIncorrect             674                       # Number of branches that were predicted not taken incorrectly (Count)
system.cpu.branchMispredicts                      733                       # Number of branch mispredicts detected at execute (Count)
system.cpu.numInsts                            254823                       # Number of executed instructions (Count)
system.cpu.numLoadInsts                         35556                       # Number of load instructions executed (Count)
system.cpu.numSquashedInsts                       817                       # Number of squashed instructions skipped in execute (Count)
system.cpu.numSwp                                   0                       # Number of swp insts executed (Count)
system.cpu.numNop                                   0                       # Number of nop insts executed (Count)
system.cpu.numRefs                              54099                       # Number of memory reference insts executed (Count)
system.cpu.numBranches                          18829                       # Number of branches executed (Count)
system.cpu.numStoreInsts                        18543                       # Number of stores executed (Count)
system.cpu.numRate                           1.106579                       # Inst execution rate ((Count/Cycle))
system.cpu.instsToCommit                       254458                       # Cumulative count of insts sent to commit (Count)
system.cpu.writebackCount                      254049                       # Cumulative count of insts written-back (Count)
system.cpu.producerInst                        157883                       # Number of instructions producing a value (Count)
system.cpu.consumerInst                        212012                       # Number of instructions consuming a value (Count)
system.cpu.wbRate                            1.103218                       # Insts written-back per cycle ((Count/Cycle))
system.cpu.wbFanout                          0.744689                       # Average fanout of values written-back ((Count/Count))
system.cpu.timesIdled                             305                       # Number of times that the entire CPU went into an idle state and unscheduled itself (Count)
system.cpu.idleCycles                           19812                       # Total number of cycles that the CPU has spent unscheduled due to idling (Cycle)
system.cpu.committedInsts                      123103                       # Number of Instructions Simulated (Count)
system.cpu.committedOps                        245705                       # Number of Ops (including micro ops) Simulated (Count)
system.cpu.cpi                               1.870629                       # CPI: Cycles Per Instruction ((Cycle/Count))
system.cpu.totalCpi                          1.870629                       # CPI: Total CPI of All Threads ((Cycle/Count))
system.cpu.ipc                               0.534580                       # IPC: Instructions Per Cycle ((Count/Cycle))
system.cpu.totalIpc                          0.534580                       # IPC: Total IPC of All Threads ((Count/Cycle))
system.cpu.intRegfileReads                     230557                       # Number of integer regfile reads (Count)
system.cpu.intRegfileWrites                    117206                       # Number of integer regfile writes (Count)
system.cpu.fpRegfileReads                      116324                       # Number of floating regfile reads (Count)
system.cpu.fpRegfileWrites                      99151                       # Number of floating regfile writes (Count)
system.cpu.ccRegfileReads                       92895                       # number of cc regfile reads (Count)
system.cpu.ccRegfileWrites                      72762                       # number of cc regfile writes (Count)
system.cpu.miscRegfileReads                     92775                       # number of misc regfile reads (Count)
system.cpu.MemDepUnit__0.insertedLoads          35955                       # Number of loads inserted to the mem dependence unit. (Count)
system.cpu.MemDepUnit__0.insertedStores         18988                       # Number of stores inserted to the mem dependence unit. (Count)
system.cpu.MemDepUnit__0.conflictingLoads        16420                       # Number of conflicting loads. (Count)
system.cpu.MemDepUnit__0.conflictingStores        16416                       # Number of conflicting stores. (Count)
system.cpu.MemDepUnit__1.insertedLoads              0                       # Number of loads inserted to the mem dependence unit. (Count)
system.cpu.MemDepUnit__1.insertedStores             0                       # Number of stores inserted to the mem dependence unit. (Count)
system.cpu.MemDepUnit__1.conflictingLoads            0                       # Number of conflicting loads. (Count)
system.cpu.MemDepUnit__1.conflictingStores            0                       # Number of conflicting stores. (Count)
system.cpu.MemDepUnit__2.insertedLoads              0                       # Number of loads inserted to the mem dependence unit. (Count)
system.cpu.MemDepUnit__2.insertedStores             0                       # Number of stores inserted to the mem dependence unit. (Count)
system.cpu.MemDepUnit__2.conflictingLoads            0                       # Number of conflicting loads. (Count)
system.cpu.MemDepUnit__2.conflictingStores            0                       # Number of conflicting stores. (Count)
system.cpu.MemDepUnit__3.insertedLoads              0                       # Number of loads inserted to the mem dependence unit. (Count)
system.cpu.MemDepUnit__3.insertedStores             0                       # Number of stores inserted to the mem dependence unit. (Count)
system.cpu.MemDepUnit__3.conflictingLoads            0                       # Number of conflicting loads. (Count)
system.cpu.MemDepUnit__3.conflictingStores            0                       # Number of conflicting stores. (Count)
system.cpu.branchPred.lookups                   20457                       # Number of BP lookups (Count)
system.cpu.branchPred.condPredicted             19218                       # Number of conditional branches predicted (Count)
system.cpu.branchPred.condIncorrect               695                       # Number of conditional branches incorrect (Count)
system.cpu.branchPred.BTBLookups                18299                       # Number of BTB lookups (Count)
system.cpu.branchPred.BTBHits                   17582                       # Number of BTB hits (Count)
system.cpu.branchPred.BTBHitRatio            0.960818                       # BTB Hit Ratio (Ratio)
system.cpu.branchPred.RASUsed                     305                       # Number of times the RAS was used to get a target. (Count)
system.cpu.branchPred.RASIncorrect                  0                       # Number of incorrect RAS predictions. (Count)
system.cpu.branchPred.indirectLookups             300                       # Number of indirect predictor lookups. (Count)
system.cpu.branchPred.indirectHits                 17                       # Number of indirect target hits. (Count)
system.cpu.branchPred.indirectMisses              283                       # Number of indirect misses. (Count)
system.cpu.branchPred.indirectMispredicted           95                       # Number of mispredicted indirect branches. (Count)
system.cpu.commit.commitSquashedInsts           12971                       # The number of squashed insts skipped by commit (Count)
system.cpu.commit.branchMispredicts               612                       # The number of times a branch was mispredicted (Count)
system.cpu.commit.numCommittedDist::samples       208357                       # Number of insts commited each cycle (Count)
system.cpu.commit.numCommittedDist::mean     1.179250                       # Number of insts commited each cycle (Count)
system.cpu.commit.numCommittedDist::stdev     2.191222                       # Number of insts commited each cycle (Count)
system.cpu.commit.numCommittedDist::underflows            0      0.00%      0.00% # Number of insts commited each cycle (Count)
system.cpu.commit.numCommittedDist::0          121293     58.21%     58.21% # Number of insts commited each cycle (Count)
system.cpu.commit.numCommittedDist::1           34364     16.49%     74.71% # Number of insts commited each cycle (Count)
system.cpu.commit.numCommittedDist::2           33599     16.13%     90.83% # Number of insts commited each cycle (Count)
system.cpu.commit.numCommittedDist::3            1001      0.48%     91.31% # Number of insts commited each cycle (Count)
system.cpu.commit.numCommittedDist::4             543      0.26%     91.57% # Number of insts commited each cycle (Count)
system.cpu.commit.numCommittedDist::5             333      0.16%     91.73% # Number of insts commited each cycle (Count)
system.cpu.commit.numCommittedDist::6             188      0.09%     91.82% # Number of insts commited each cycle (Count)
system.cpu.commit.numCommittedDist::7             113      0.05%     91.88% # Number of insts commited each cycle (Count)
system.cpu.commit.numCommittedDist::8           16923      8.12%    100.00% # Number of insts commited each cycle (Count)
system.cpu.commit.numCommittedDist::overflows            0      0.00%    100.00% # Number of insts commited each cycle (Count)
system.cpu.commit.numCommittedDist::min_value            0                       # Number of insts commited each cycle (Count)
system.cpu.commit.numCommittedDist::max_value            8                       # Number of insts commited each cycle (Count)
system.cpu.commit.numCommittedDist::total       208357                       # Number of insts commited each cycle (Count)
system.cpu.commit.instsCommitted               123103                       # Number of instructions committed (Count)
system.cpu.commit.opsCommitted                 245705                       # Number of ops (including micro ops) committed (Count)
system.cpu.commit.memRefs                       52341                       # Number of memory references committed (Count)
system.cpu.commit.loads                         34321                       # Number of loads committed (Count)
system.cpu.commit.amos                              0                       # Number of atomic instructions committed (Count)
system.cpu.commit.membars                           0                       # Number of memory barriers committed (Count)
system.cpu.commit.branches                      18130                       # Number of branches committed (Count)
system.cpu.commit.vectorInstructions                0                       # Number of committed Vector instructions. (Count)
system.cpu.commit.floating                     115853                       # Number of committed floating point instructions. (Count)
system.cpu.commit.integer                      179407                       # Number of committed integer instructions. (Count)
system.cpu.commit.functionCalls                   150                       # Number of function calls committed. (Count)
system.cpu.commit.committedInstType_0::No_OpClass          197      0.08%      0.08% # Class of committed instruction (Count)
system.cpu.commit.committedInstType_0::IntAlu       127105     51.73%     51.81% # Class of committed instruction (Count)
system.cpu.commit.committedInstType_0::IntMult            5      0.00%     51.81% # Class of committed instruction (Count)
system.cpu.commit.committedInstType_0::IntDiv           21      0.01%     51.82% # Class of committed instruction (Count)
system.cpu.commit.committedInstType_0::FloatAdd        32905     13.39%     65.21% # Class of committed instruction (Count)
system.cpu.commit.committedInstType_0::FloatCmp            0      0.00%     65.21% # Class of committed instruction (Count)
system.cpu.commit.committedInstType_0::FloatCvt            0      0.00%     65.21% # Class of committed instruction (Count)
system.cpu.commit.committedInstType_0::FloatMult            0      0.00%     65.21% # Class of committed instruction (Count)
system.cpu.commit.committedInstType_0::FloatMultAcc            0      0.00%     65.21% # Class of committed instruction (Count)
system.cpu.commit.committedInstType_0::FloatDiv            0      0.00%     65.21% # Class of committed instruction (Count)
system.cpu.commit.committedInstType_0::FloatMisc            0      0.00%     65.21% # Class of committed instruction (Count)
system.cpu.commit.committedInstType_0::FloatSqrt            0      0.00%     65.21% # Class of committed instruction (Count)
system.cpu.commit.committedInstType_0::SimdAdd            0      0.00%     65.21% # Class of committed instruction (Count)
system.cpu.commit.committedInstType_0::SimdAddAcc            0      0.00%     65.21% # Class of committed instruction (Count)
system.cpu.commit.committedInstType_0::SimdAlu           96      0.04%     65.25% # Class of committed instruction (Count)
system.cpu.commit.committedInstType_0::SimdCmp            0      0.00%     65.25% # Class of committed instruction (Count)
system.cpu.commit.committedInstType_0::SimdCvt           46      0.02%     65.27% # Class of committed instruction (Count)
system.cpu.commit.committedInstType_0::SimdMisc          217      0.09%     65.36% # Class of committed instruction (Count)
system.cpu.commit.committedInstType_0::SimdMult            0      0.00%     65.36% # Class of committed instruction (Count)
system.cpu.commit.committedInstType_0::SimdMultAcc            0      0.00%     65.36% # Class of committed instruction (Count)
system.cpu.commit.committedInstType_0::SimdShift            0      0.00%     65.36% # Class of committed instruction (Count)
system.cpu.commit.committedInstType_0::SimdShiftAcc            0      0.00%     65.36% # Class of committed instruction (Count)
system.cpu.commit.committedInstType_0::SimdDiv            0      0.00%     65.36% # Class of committed instruction (Count)
system.cpu.commit.committedInstType_0::SimdSqrt            0      0.00%     65.36% # Class of committed instruction (Count)
system.cpu.commit.committedInstType_0::SimdFloatAdd        16386      6.67%     72.03% # Class of committed instruction (Count)
system.cpu.commit.committedInstType_0::SimdFloatAlu            0      0.00%     72.03% # Class of committed instruction (Count)
system.cpu.commit.committedInstType_0::SimdFloatCmp            0      0.00%     72.03% # Class of committed instruction (Count)
system.cpu.commit.committedInstType_0::SimdFloatCvt            2      0.00%     72.03% # Class of committed instruction (Count)
system.cpu.commit.committedInstType_0::SimdFloatDiv            0      0.00%     72.03% # Class of committed instruction (Count)
system.cpu.commit.committedInstType_0::SimdFloatMisc            0      0.00%     72.03% # Class of committed instruction (Count)
system.cpu.commit.committedInstType_0::SimdFloatMult        16384      6.67%     78.70% # Class of committed instruction (Count)
system.cpu.commit.committedInstType_0::SimdFloatMultAcc            0      0.00%     78.70% # Class of committed instruction (Count)
system.cpu.commit.committedInstType_0::SimdFloatSqrt            0      0.00%     78.70% # Class of committed instruction (Count)
system.cpu.commit.committedInstType_0::SimdReduceAdd            0      0.00%     78.70% # Class of committed instruction (Count)
system.cpu.commit.committedInstType_0::SimdReduceAlu            0      0.00%     78.70% # Class of committed instruction (Count)
system.cpu.commit.committedInstType_0::SimdReduceCmp            0      0.00%     78.70% # Class of committed instruction (Count)
system.cpu.commit.committedInstType_0::SimdFloatReduceAdd            0      0.00%     78.70% # Class of committed instruction (Count)
system.cpu.commit.committedInstType_0::SimdFloatReduceCmp            0      0.00%     78.70% # Class of committed instruction (Count)
system.cpu.commit.committedInstType_0::SimdAes            0      0.00%     78.70% # Class of committed instruction (Count)
system.cpu.commit.committedInstType_0::SimdAesMix            0      0.00%     78.70% # Class of committed instruction (Count)
system.cpu.commit.committedInstType_0::SimdSha1Hash            0      0.00%     78.70% # Class of committed instruction (Count)
system.cpu.commit.committedInstType_0::SimdSha1Hash2            0      0.00%     78.70% # Class of committed instruction (Count)
system.cpu.commit.committedInstType_0::SimdSha256Hash            0      0.00%     78.70% # Class of committed instruction (Count)
system.cpu.commit.committedInstType_0::SimdSha256Hash2            0      0.00%     78.70% # Class of committed instruction (Count)
system.cpu.commit.committedInstType_0::SimdShaSigma2            0      0.00%     78.70% # Class of committed instruction (Count)
system.cpu.commit.committedInstType_0::SimdShaSigma3            0      0.00%     78.70% # Class of committed instruction (Count)
system.cpu.commit.committedInstType_0::SimdPredAlu            0      0.00%     78.70% # Class of committed instruction (Count)
system.cpu.commit.committedInstType_0::MemRead         1496      0.61%     79.31% # Class of committed instruction (Count)
system.cpu.commit.committedInstType_0::MemWrite         1169      0.48%     79.78% # Class of committed instruction (Count)
system.cpu.commit.committedInstType_0::FloatMemRead        32825     13.36%     93.14% # Class of committed instruction (Count)
system.cpu.commit.committedInstType_0::FloatMemWrite        16851      6.86%    100.00% # Class of committed instruction (Count)
system.cpu.commit.committedInstType_0::IprAccess            0      0.00%    100.00% # Class of committed instruction (Count)
system.cpu.commit.committedInstType_0::InstPrefetch            0      0.00%    100.00% # Class of committed instruction (Count)
system.cpu.commit.committedInstType_0::total       245705                       # Class of committed instruction (Count)
system.cpu.commit.commitEligibleSamples         16923                       # number cycles where commit BW limit reached (Cycle)
system.cpu.dcache.demandHits::cpu.data          48563                       # number of demand (read+write) hits (Count)
system.cpu.dcache.demandHits::total             48563                       # number of demand (read+write) hits (Count)
system.cpu.dcache.overallHits::cpu.data         48563                       # number of overall hits (Count)
system.cpu.dcache.overallHits::total            48563                       # number of overall hits (Count)
system.cpu.dcache.demandMisses::cpu.data         5707                       # number of demand (read+write) misses (Count)
system.cpu.dcache.demandMisses::total            5707                       # number of demand (read+write) misses (Count)
system.cpu.dcache.overallMisses::cpu.data         5707                       # number of overall misses (Count)
system.cpu.dcache.overallMisses::total           5707                       # number of overall misses (Count)
system.cpu.dcache.demandMissLatency::cpu.data    311664999                       # number of demand (read+write) miss ticks (Tick)
system.cpu.dcache.demandMissLatency::total    311664999                       # number of demand (read+write) miss ticks (Tick)
system.cpu.dcache.overallMissLatency::cpu.data    311664999                       # number of overall miss ticks (Tick)
system.cpu.dcache.overallMissLatency::total    311664999                       # number of overall miss ticks (Tick)
system.cpu.dcache.demandAccesses::cpu.data        54270                       # number of demand (read+write) accesses (Count)
system.cpu.dcache.demandAccesses::total         54270                       # number of demand (read+write) accesses (Count)
system.cpu.dcache.overallAccesses::cpu.data        54270                       # number of overall (read+write) accesses (Count)
system.cpu.dcache.overallAccesses::total        54270                       # number of overall (read+write) accesses (Count)
system.cpu.dcache.demandMissRate::cpu.data     0.105159                       # miss rate for demand accesses (Ratio)
system.cpu.dcache.demandMissRate::total      0.105159                       # miss rate for demand accesses (Ratio)
system.cpu.dcache.overallMissRate::cpu.data     0.105159                       # miss rate for overall accesses (Ratio)
system.cpu.dcache.overallMissRate::total     0.105159                       # miss rate for overall accesses (Ratio)
system.cpu.dcache.demandAvgMissLatency::cpu.data 54611.003855                       # average overall miss latency ((Cycle/Count))
system.cpu.dcache.demandAvgMissLatency::total 54611.003855                       # average overall miss latency ((Cycle/Count))
system.cpu.dcache.overallAvgMissLatency::cpu.data 54611.003855                       # average overall miss latency ((Cycle/Count))
system.cpu.dcache.overallAvgMissLatency::total 54611.003855                       # average overall miss latency ((Cycle/Count))
system.cpu.dcache.blockedCycles::no_mshrs          781                       # number of cycles access was blocked (Cycle)
system.cpu.dcache.blockedCycles::no_targets            0                       # number of cycles access was blocked (Cycle)
system.cpu.dcache.blockedCauses::no_mshrs           21                       # number of times access was blocked (Count)
system.cpu.dcache.blockedCauses::no_targets            0                       # number of times access was blocked (Count)
system.cpu.dcache.avgBlocked::no_mshrs      37.190476                       # average number of cycles each access was blocked ((Cycle/Count))
system.cpu.dcache.avgBlocked::no_targets          nan                       # average number of cycles each access was blocked ((Cycle/Count))
system.cpu.dcache.writebacks::writebacks          270                       # number of writebacks (Count)
system.cpu.dcache.writebacks::total               270                       # number of writebacks (Count)
system.cpu.dcache.demandMshrHits::cpu.data         3865                       # number of demand (read+write) MSHR hits (Count)
system.cpu.dcache.demandMshrHits::total          3865                       # number of demand (read+write) MSHR hits (Count)
system.cpu.dcache.overallMshrHits::cpu.data         3865                       # number of overall MSHR hits (Count)
system.cpu.dcache.overallMshrHits::total         3865                       # number of overall MSHR hits (Count)
system.cpu.dcache.demandMshrMisses::cpu.data         1842                       # number of demand (read+write) MSHR misses (Count)
system.cpu.dcache.demandMshrMisses::total         1842                       # number of demand (read+write) MSHR misses (Count)
system.cpu.dcache.overallMshrMisses::cpu.data         1842                       # number of overall MSHR misses (Count)
system.cpu.dcache.overallMshrMisses::total         1842                       # number of overall MSHR misses (Count)
system.cpu.dcache.demandMshrMissLatency::cpu.data    161022999                       # number of demand (read+write) MSHR miss ticks (Tick)
system.cpu.dcache.demandMshrMissLatency::total    161022999                       # number of demand (read+write) MSHR miss ticks (Tick)
system.cpu.dcache.overallMshrMissLatency::cpu.data    161022999                       # number of overall MSHR miss ticks (Tick)
system.cpu.dcache.overallMshrMissLatency::total    161022999                       # number of overall MSHR miss ticks (Tick)
system.cpu.dcache.demandMshrMissRate::cpu.data     0.033941                       # mshr miss ratio for demand accesses (Ratio)
system.cpu.dcache.demandMshrMissRate::total     0.033941                       # mshr miss ratio for demand accesses (Ratio)
system.cpu.dcache.overallMshrMissRate::cpu.data     0.033941                       # mshr miss ratio for overall accesses (Ratio)
system.cpu.dcache.overallMshrMissRate::total     0.033941                       # mshr miss ratio for overall accesses (Ratio)
system.cpu.dcache.demandAvgMshrMissLatency::cpu.data 87417.480456                       # average overall mshr miss latency ((Cycle/Count))
system.cpu.dcache.demandAvgMshrMissLatency::total 87417.480456                       # average overall mshr miss latency ((Cycle/Count))
system.cpu.dcache.overallAvgMshrMissLatency::cpu.data 87417.480456                       # average overall mshr miss latency ((Cycle/Count))
system.cpu.dcache.overallAvgMshrMissLatency::total 87417.480456                       # average overall mshr miss latency ((Cycle/Count))
system.cpu.dcache.replacements                    265                       # number of replacements (Count)
system.cpu.dcache.ReadReq.hits::cpu.data        31209                       # number of ReadReq hits (Count)
system.cpu.dcache.ReadReq.hits::total           31209                       # number of ReadReq hits (Count)
system.cpu.dcache.ReadReq.misses::cpu.data         5040                       # number of ReadReq misses (Count)
system.cpu.dcache.ReadReq.misses::total          5040                       # number of ReadReq misses (Count)
system.cpu.dcache.ReadReq.missLatency::cpu.data    267352000                       # number of ReadReq miss ticks (Tick)
system.cpu.dcache.ReadReq.missLatency::total    267352000                       # number of ReadReq miss ticks (Tick)
system.cpu.dcache.ReadReq.accesses::cpu.data        36249                       # number of ReadReq accesses(hits+misses) (Count)
system.cpu.dcache.ReadReq.accesses::total        36249                       # number of ReadReq accesses(hits+misses) (Count)
system.cpu.dcache.ReadReq.missRate::cpu.data     0.139038                       # miss rate for ReadReq accesses (Ratio)
system.cpu.dcache.ReadReq.missRate::total     0.139038                       # miss rate for ReadReq accesses (Ratio)
system.cpu.dcache.ReadReq.avgMissLatency::cpu.data 53046.031746                       # average ReadReq miss latency ((Tick/Count))
system.cpu.dcache.ReadReq.avgMissLatency::total 53046.031746                       # average ReadReq miss latency ((Tick/Count))
system.cpu.dcache.ReadReq.mshrHits::cpu.data         3864                       # number of ReadReq MSHR hits (Count)
system.cpu.dcache.ReadReq.mshrHits::total         3864                       # number of ReadReq MSHR hits (Count)
system.cpu.dcache.ReadReq.mshrMisses::cpu.data         1176                       # number of ReadReq MSHR misses (Count)
system.cpu.dcache.ReadReq.mshrMisses::total         1176                       # number of ReadReq MSHR misses (Count)
system.cpu.dcache.ReadReq.mshrMissLatency::cpu.data    118044000                       # number of ReadReq MSHR miss ticks (Tick)
system.cpu.dcache.ReadReq.mshrMissLatency::total    118044000                       # number of ReadReq MSHR miss ticks (Tick)
system.cpu.dcache.ReadReq.mshrMissRate::cpu.data     0.032442                       # mshr miss rate for ReadReq accesses (Ratio)
system.cpu.dcache.ReadReq.mshrMissRate::total     0.032442                       # mshr miss rate for ReadReq accesses (Ratio)
system.cpu.dcache.ReadReq.avgMshrMissLatency::cpu.data 100377.551020                       # average ReadReq mshr miss latency ((Tick/Count))
system.cpu.dcache.ReadReq.avgMshrMissLatency::total 100377.551020                       # average ReadReq mshr miss latency ((Tick/Count))
system.cpu.dcache.WriteReq.hits::cpu.data        17354                       # number of WriteReq hits (Count)
system.cpu.dcache.WriteReq.hits::total          17354                       # number of WriteReq hits (Count)
system.cpu.dcache.WriteReq.misses::cpu.data          667                       # number of WriteReq misses (Count)
system.cpu.dcache.WriteReq.misses::total          667                       # number of WriteReq misses (Count)
system.cpu.dcache.WriteReq.missLatency::cpu.data     44312999                       # number of WriteReq miss ticks (Tick)
system.cpu.dcache.WriteReq.missLatency::total     44312999                       # number of WriteReq miss ticks (Tick)
system.cpu.dcache.WriteReq.accesses::cpu.data        18021                       # number of WriteReq accesses(hits+misses) (Count)
system.cpu.dcache.WriteReq.accesses::total        18021                       # number of WriteReq accesses(hits+misses) (Count)
system.cpu.dcache.WriteReq.missRate::cpu.data     0.037012                       # miss rate for WriteReq accesses (Ratio)
system.cpu.dcache.WriteReq.missRate::total     0.037012                       # miss rate for WriteReq accesses (Ratio)
system.cpu.dcache.WriteReq.avgMissLatency::cpu.data 66436.280360                       # average WriteReq miss latency ((Tick/Count))
system.cpu.dcache.WriteReq.avgMissLatency::total 66436.280360                       # average WriteReq miss latency ((Tick/Count))
system.cpu.dcache.WriteReq.mshrHits::cpu.data            1                       # number of WriteReq MSHR hits (Count)
system.cpu.dcache.WriteReq.mshrHits::total            1                       # number of WriteReq MSHR hits (Count)
system.cpu.dcache.WriteReq.mshrMisses::cpu.data          666                       # number of WriteReq MSHR misses (Count)
system.cpu.dcache.WriteReq.mshrMisses::total          666                       # number of WriteReq MSHR misses (Count)
system.cpu.dcache.WriteReq.mshrMissLatency::cpu.data     42978999                       # number of WriteReq MSHR miss ticks (Tick)
system.cpu.dcache.WriteReq.mshrMissLatency::total     42978999                       # number of WriteReq MSHR miss ticks (Tick)
system.cpu.dcache.WriteReq.mshrMissRate::cpu.data     0.036957                       # mshr miss rate for WriteReq accesses (Ratio)
system.cpu.dcache.WriteReq.mshrMissRate::total     0.036957                       # mshr miss rate for WriteReq accesses (Ratio)
system.cpu.dcache.WriteReq.avgMshrMissLatency::cpu.data 64533.031532                       # average WriteReq mshr miss latency ((Tick/Count))
system.cpu.dcache.WriteReq.avgMshrMissLatency::total 64533.031532                       # average WriteReq mshr miss latency ((Tick/Count))
system.cpu.dcache.power_state.pwrStateResidencyTicks::UNDEFINED    230279000                       # Cumulative time (in ticks) in various power states (Tick)
system.cpu.dcache.tags.tagsInUse           623.151210                       # Average ticks per tags in use ((Tick/Count))
system.cpu.dcache.tags.totalRefs                50918                       # Total number of references to valid blocks. (Count)
system.cpu.dcache.tags.sampledRefs               1289                       # Sample count of references to valid blocks. (Count)
system.cpu.dcache.tags.avgRefs              39.501939                       # Average number of references to valid blocks. ((Count/Count))
system.cpu.dcache.tags.warmupTick              230000                       # The tick when the warmup percentage was hit. (Tick)
system.cpu.dcache.tags.occupancies::cpu.data   623.151210                       # Average occupied blocks per tick, per requestor ((Count/Tick))
system.cpu.dcache.tags.avgOccs::cpu.data     0.608546                       # Average percentage of cache occupancy ((Ratio/Tick))
system.cpu.dcache.tags.avgOccs::total        0.608546                       # Average percentage of cache occupancy ((Ratio/Tick))
system.cpu.dcache.tags.occupanciesTaskId::1024         1024                       # Occupied blocks per task id (Count)
system.cpu.dcache.tags.ageTaskId_1024::0           35                       # Occupied blocks per task id, per block age (Count)
system.cpu.dcache.tags.ageTaskId_1024::1          357                       # Occupied blocks per task id, per block age (Count)
system.cpu.dcache.tags.ageTaskId_1024::2          632                       # Occupied blocks per task id, per block age (Count)
system.cpu.dcache.tags.ratioOccsTaskId::1024            1                       # Ratio of occupied blocks and all blocks, per task id (Ratio)
system.cpu.dcache.tags.tagAccesses             109829                       # Number of tag accesses (Count)
system.cpu.dcache.tags.dataAccesses            109829                       # Number of data accesses (Count)
system.cpu.dcache.tags.power_state.pwrStateResidencyTicks::UNDEFINED    230279000                       # Cumulative time (in ticks) in various power states (Tick)
system.cpu.decode.idleCycles                    26942                       # Number of cycles decode is idle (Cycle)
system.cpu.decode.blockedCycles                148883                       # Number of cycles decode is blocked (Cycle)
system.cpu.decode.runCycles                      7402                       # Number of cycles decode is running (Cycle)
system.cpu.decode.unblockCycles                 26599                       # Number of cycles decode is unblocking (Cycle)
system.cpu.decode.squashCycles                    642                       # Number of cycles decode is squashing (Cycle)
system.cpu.decode.branchResolved                17703                       # Number of times decode resolved a branch (Count)
system.cpu.decode.branchMispred                   223                       # Number of times decode detected a branch misprediction (Count)
system.cpu.decode.decodedInsts                 262628                       # Number of instructions handled by decode (Count)
system.cpu.decode.squashedInsts                  1093                       # Number of squashed instructions handled by decode (Count)
system.cpu.fetch.icacheStallCycles              16698                       # Number of cycles fetch is stalled on an Icache miss (Cycle)
system.cpu.fetch.insts                         134300                       # Number of instructions fetch has processed (Count)
system.cpu.fetch.branches                       20457                       # Number of branches that fetch encountered (Count)
system.cpu.fetch.predictedBranches              17904                       # Number of branches that fetch has predicted taken (Count)
system.cpu.fetch.cycles                        191866                       # Number of cycles fetch has run and was not squashing or blocked (Cycle)
system.cpu.fetch.squashCycles                    1720                       # Number of cycles fetch has spent squashing (Cycle)
system.cpu.fetch.miscStallCycles                  151                       # Number of cycles fetch has spent waiting on interrupts, or bad addresses, or out of MSHRs (Cycle)
system.cpu.fetch.pendingTrapStallCycles           891                       # Number of stall cycles due to pending traps (Cycle)
system.cpu.fetch.pendingQuiesceStallCycles            2                       # Number of stall cycles due to pending quiesce instructions (Cycle)
system.cpu.fetch.cacheLines                      3112                       # Number of cache lines fetched (Count)
system.cpu.fetch.icacheSquashes                   377                       # Number of outstanding Icache misses that were squashed (Count)
system.cpu.fetch.nisnDist::samples             210468                       # Number of instructions fetched each cycle (Total) (Count)
system.cpu.fetch.nisnDist::mean              1.266606                       # Number of instructions fetched each cycle (Total) (Count)
system.cpu.fetch.nisnDist::stdev             2.629468                       # Number of instructions fetched each cycle (Total) (Count)
system.cpu.fetch.nisnDist::underflows               0      0.00%      0.00% # Number of instructions fetched each cycle (Total) (Count)
system.cpu.fetch.nisnDist::0                   164815     78.31%     78.31% # Number of instructions fetched each cycle (Total) (Count)
system.cpu.fetch.nisnDist::1                      314      0.15%     78.46% # Number of instructions fetched each cycle (Total) (Count)
system.cpu.fetch.nisnDist::2                     7262      3.45%     81.91% # Number of instructions fetched each cycle (Total) (Count)
system.cpu.fetch.nisnDist::3                      353      0.17%     82.08% # Number of instructions fetched each cycle (Total) (Count)
system.cpu.fetch.nisnDist::4                     7634      3.63%     85.70% # Number of instructions fetched each cycle (Total) (Count)
system.cpu.fetch.nisnDist::5                      245      0.12%     85.82% # Number of instructions fetched each cycle (Total) (Count)
system.cpu.fetch.nisnDist::6                     9762      4.64%     90.46% # Number of instructions fetched each cycle (Total) (Count)
system.cpu.fetch.nisnDist::7                      314      0.15%     90.61% # Number of instructions fetched each cycle (Total) (Count)
system.cpu.fetch.nisnDist::8                    19769      9.39%    100.00% # Number of instructions fetched each cycle (Total) (Count)
system.cpu.fetch.nisnDist::overflows                0      0.00%    100.00% # Number of instructions fetched each cycle (Total) (Count)
system.cpu.fetch.nisnDist::min_value                0                       # Number of instructions fetched each cycle (Total) (Count)
system.cpu.fetch.nisnDist::max_value                8                       # Number of instructions fetched each cycle (Total) (Count)
system.cpu.fetch.nisnDist::total               210468                       # Number of instructions fetched each cycle (Total) (Count)
system.cpu.fetch.branchRate                  0.088835                       # Number of branch fetches per cycle (Ratio)
system.cpu.fetch.rate                        0.583203                       # Number of inst fetches per cycle ((Count/Cycle))
system.cpu.icache.demandHits::cpu.inst           2502                       # number of demand (read+write) hits (Count)
system.cpu.icache.demandHits::total              2502                       # number of demand (read+write) hits (Count)
system.cpu.icache.overallHits::cpu.inst          2502                       # number of overall hits (Count)
system.cpu.icache.overallHits::total             2502                       # number of overall hits (Count)
system.cpu.icache.demandMisses::cpu.inst          610                       # number of demand (read+write) misses (Count)
system.cpu.icache.demandMisses::total             610                       # number of demand (read+write) misses (Count)
system.cpu.icache.overallMisses::cpu.inst          610                       # number of overall misses (Count)
system.cpu.icache.overallMisses::total            610                       # number of overall misses (Count)
system.cpu.icache.demandMissLatency::cpu.inst     59592000                       # number of demand (read+write) miss ticks (Tick)
system.cpu.icache.demandMissLatency::total     59592000                       # number of demand (read+write) miss ticks (Tick)
system.cpu.icache.overallMissLatency::cpu.inst     59592000                       # number of overall miss ticks (Tick)
system.cpu.icache.overallMissLatency::total     59592000                       # number of overall miss ticks (Tick)
system.cpu.icache.demandAccesses::cpu.inst         3112                       # number of demand (read+write) accesses (Count)
system.cpu.icache.demandAccesses::total          3112                       # number of demand (read+write) accesses (Count)
system.cpu.icache.overallAccesses::cpu.inst         3112                       # number of overall (read+write) accesses (Count)
system.cpu.icache.overallAccesses::total         3112                       # number of overall (read+write) accesses (Count)
system.cpu.icache.demandMissRate::cpu.inst     0.196015                       # miss rate for demand accesses (Ratio)
system.cpu.icache.demandMissRate::total      0.196015                       # miss rate for demand accesses (Ratio)
system.cpu.icache.overallMissRate::cpu.inst     0.196015                       # miss rate for overall accesses (Ratio)
system.cpu.icache.overallMissRate::total     0.196015                       # miss rate for overall accesses (Ratio)
system.cpu.icache.demandAvgMissLatency::cpu.inst 97691.803279                       # average overall miss latency ((Cycle/Count))
system.cpu.icache.demandAvgMissLatency::total 97691.803279                       # average overall miss latency ((Cycle/Count))
system.cpu.icache.overallAvgMissLatency::cpu.inst 97691.803279                       # average overall miss latency ((Cycle/Count))
system.cpu.icache.overallAvgMissLatency::total 97691.803279                       # average overall miss latency ((Cycle/Count))
system.cpu.icache.blockedCycles::no_mshrs           37                       # number of cycles access was blocked (Cycle)
system.cpu.icache.blockedCycles::no_targets            0                       # number of cycles access was blocked (Cycle)
system.cpu.icache.blockedCauses::no_mshrs            1                       # number of times access was blocked (Count)
system.cpu.icache.blockedCauses::no_targets            0                       # number of times access was blocked (Count)
system.cpu.icache.avgBlocked::no_mshrs             37                       # average number of cycles each access was blocked ((Cycle/Count))
system.cpu.icache.avgBlocked::no_targets          nan                       # average number of cycles each access was blocked ((Cycle/Count))
system.cpu.icache.demandMshrHits::cpu.inst          132                       # number of demand (read+write) MSHR hits (Count)
system.cpu.icache.demandMshrHits::total           132                       # number of demand (read+write) MSHR hits (Count)
system.cpu.icache.overallMshrHits::cpu.inst          132                       # number of overall MSHR hits (Count)
system.cpu.icache.overallMshrHits::total          132                       # number of overall MSHR hits (Count)
system.cpu.icache.demandMshrMisses::cpu.inst          478                       # number of demand (read+write) MSHR misses (Count)
system.cpu.icache.demandMshrMisses::total          478                       # number of demand (read+write) MSHR misses (Count)
system.cpu.icache.overallMshrMisses::cpu.inst          478                       # number of overall MSHR misses (Count)
system.cpu.icache.overallMshrMisses::total          478                       # number of overall MSHR misses (Count)
system.cpu.icache.demandMshrMissLatency::cpu.inst     48449000                       # number of demand (read+write) MSHR miss ticks (Tick)
system.cpu.icache.demandMshrMissLatency::total     48449000                       # number of demand (read+write) MSHR miss ticks (Tick)
system.cpu.icache.overallMshrMissLatency::cpu.inst     48449000                       # number of overall MSHR miss ticks (Tick)
system.cpu.icache.overallMshrMissLatency::total     48449000                       # number of overall MSHR miss ticks (Tick)
system.cpu.icache.demandMshrMissRate::cpu.inst     0.153599                       # mshr miss ratio for demand accesses (Ratio)
system.cpu.icache.demandMshrMissRate::total     0.153599                       # mshr miss ratio for demand accesses (Ratio)
system.cpu.icache.overallMshrMissRate::cpu.inst     0.153599                       # mshr miss ratio for overall accesses (Ratio)
system.cpu.icache.overallMshrMissRate::total     0.153599                       # mshr miss ratio for overall accesses (Ratio)
system.cpu.icache.demandAvgMshrMissLatency::cpu.inst 101357.740586                       # average overall mshr miss latency ((Cycle/Count))
system.cpu.icache.demandAvgMshrMissLatency::total 101357.740586                       # average overall mshr miss latency ((Cycle/Count))
system.cpu.icache.overallAvgMshrMissLatency::cpu.inst 101357.740586                       # average overall mshr miss latency ((Cycle/Count))
system.cpu.icache.overallAvgMshrMissLatency::total 101357.740586                       # average overall mshr miss latency ((Cycle/Count))
system.cpu.icache.replacements                    234                       # number of replacements (Count)
system.cpu.icache.ReadReq.hits::cpu.inst         2502                       # number of ReadReq hits (Count)
system.cpu.icache.ReadReq.hits::total            2502                       # number of ReadReq hits (Count)
system.cpu.icache.ReadReq.misses::cpu.inst          610                       # number of ReadReq misses (Count)
system.cpu.icache.ReadReq.misses::total           610                       # number of ReadReq misses (Count)
system.cpu.icache.ReadReq.missLatency::cpu.inst     59592000                       # number of ReadReq miss ticks (Tick)
system.cpu.icache.ReadReq.missLatency::total     59592000                       # number of ReadReq miss ticks (Tick)
system.cpu.icache.ReadReq.accesses::cpu.inst         3112                       # number of ReadReq accesses(hits+misses) (Count)
system.cpu.icache.ReadReq.accesses::total         3112                       # number of ReadReq accesses(hits+misses) (Count)
system.cpu.icache.ReadReq.missRate::cpu.inst     0.196015                       # miss rate for ReadReq accesses (Ratio)
system.cpu.icache.ReadReq.missRate::total     0.196015                       # miss rate for ReadReq accesses (Ratio)
system.cpu.icache.ReadReq.avgMissLatency::cpu.inst 97691.803279                       # average ReadReq miss latency ((Tick/Count))
system.cpu.icache.ReadReq.avgMissLatency::total 97691.803279                       # average ReadReq miss latency ((Tick/Count))
system.cpu.icache.ReadReq.mshrHits::cpu.inst          132                       # number of ReadReq MSHR hits (Count)
system.cpu.icache.ReadReq.mshrHits::total          132                       # number of ReadReq MSHR hits (Count)
system.cpu.icache.ReadReq.mshrMisses::cpu.inst          478                       # number of ReadReq MSHR misses (Count)
system.cpu.icache.ReadReq.mshrMisses::total          478                       # number of ReadReq MSHR misses (Count)
system.cpu.icache.ReadReq.mshrMissLatency::cpu.inst     48449000                       # number of ReadReq MSHR miss ticks (Tick)
system.cpu.icache.ReadReq.mshrMissLatency::total     48449000                       # number of ReadReq MSHR miss ticks (Tick)
system.cpu.icache.ReadReq.mshrMissRate::cpu.inst     0.153599                       # mshr miss rate for ReadReq accesses (Ratio)
system.cpu.icache.ReadReq.mshrMissRate::total     0.153599                       # mshr miss rate for ReadReq accesses (Ratio)
system.cpu.icache.ReadReq.avgMshrMissLatency::cpu.inst 101357.740586                       # average ReadReq mshr miss latency ((Tick/Count))
system.cpu.icache.ReadReq.avgMshrMissLatency::total 101357.740586                       # average ReadReq mshr miss latency ((Tick/Count))
system.cpu.icache.power_state.pwrStateResidencyTicks::UNDEFINED    230279000                       # Cumulative time (in ticks) in various power states (Tick)
system.cpu.icache.tags.tagsInUse           223.541591                       # Average ticks per tags in use ((Tick/Count))
system.cpu.icache.tags.totalRefs                 2980                       # Total number of references to valid blocks. (Count)
system.cpu.icache.tags.sampledRefs                478                       # Sample count of references to valid blocks. (Count)
system.cpu.icache.tags.avgRefs               6.234310                       # Average number of references to valid blocks. ((Count/Count))
system.cpu.icache.tags.warmupTick              107000                       # The tick when the warmup percentage was hit. (Tick)
system.cpu.icache.tags.occupancies::cpu.inst   223.541591                       # Average occupied blocks per tick, per requestor ((Count/Tick))
system.cpu.icache.tags.avgOccs::cpu.inst     0.873209                       # Average percentage of cache occupancy ((Ratio/Tick))
system.cpu.icache.tags.avgOccs::total        0.873209                       # Average percentage of cache occupancy ((Ratio/Tick))
system.cpu.icache.tags.occupanciesTaskId::1024          244                       # Occupied blocks per task id (Count)
system.cpu.icache.tags.ageTaskId_1024::0           39                       # Occupied blocks per task id, per block age (Count)
system.cpu.icache.tags.ageTaskId_1024::2          205                       # Occupied blocks per task id, per block age (Count)
system.cpu.icache.tags.ratioOccsTaskId::1024     0.953125                       # Ratio of occupied blocks and all blocks, per task id (Ratio)
system.cpu.icache.tags.tagAccesses               6702                       # Number of tag accesses (Count)
system.cpu.icache.tags.dataAccesses              6702                       # Number of data accesses (Count)
system.cpu.icache.tags.power_state.pwrStateResidencyTicks::UNDEFINED    230279000                       # Cumulative time (in ticks) in various power states (Tick)
system.cpu.interrupts.clk_domain.clock          16000                       # Clock period in ticks (Tick)
system.cpu.lsq0.forwLoads                         209                       # Number of loads that had data forwarded from stores (Count)
system.cpu.lsq0.squashedLoads                    1634                       # Number of loads squashed (Count)
system.cpu.lsq0.ignoredResponses                    8                       # Number of memory responses ignored because the instruction is squashed (Count)
system.cpu.lsq0.memOrderViolation                  27                       # Number of memory ordering violations (Count)
system.cpu.lsq0.squashedStores                    968                       # Number of stores squashed (Count)
system.cpu.lsq0.rescheduledLoads                    1                       # Number of loads that were rescheduled (Count)
system.cpu.lsq0.blockedByCache                     16                       # Number of times an access to memory failed due to the cache being blocked (Count)
system.cpu.lsq0.loadToUse::samples              34321                       # Distribution of cycle latency between the first time a load is issued and its completion (Unspecified)
system.cpu.lsq0.loadToUse::mean             10.165059                       # Distribution of cycle latency between the first time a load is issued and its completion (Unspecified)
system.cpu.lsq0.loadToUse::stdev            25.352069                       # Distribution of cycle latency between the first time a load is issued and its completion (Unspecified)
system.cpu.lsq0.loadToUse::0-9                  29486     85.91%     85.91% # Distribution of cycle latency between the first time a load is issued and its completion (Unspecified)
system.cpu.lsq0.loadToUse::10-19                  986      2.87%     88.79% # Distribution of cycle latency between the first time a load is issued and its completion (Unspecified)
system.cpu.lsq0.loadToUse::20-29                  980      2.86%     91.64% # Distribution of cycle latency between the first time a load is issued and its completion (Unspecified)
system.cpu.lsq0.loadToUse::30-39                  538      1.57%     93.21% # Distribution of cycle latency between the first time a load is issued and its completion (Unspecified)
system.cpu.lsq0.loadToUse::40-49                  521      1.52%     94.73% # Distribution of cycle latency between the first time a load is issued and its completion (Unspecified)
system.cpu.lsq0.loadToUse::50-59                  555      1.62%     96.34% # Distribution of cycle latency between the first time a load is issued and its completion (Unspecified)
system.cpu.lsq0.loadToUse::60-69                    6      0.02%     96.36% # Distribution of cycle latency between the first time a load is issued and its completion (Unspecified)
system.cpu.lsq0.loadToUse::70-79                    4      0.01%     96.37% # Distribution of cycle latency between the first time a load is issued and its completion (Unspecified)
system.cpu.lsq0.loadToUse::80-89                    6      0.02%     96.39% # Distribution of cycle latency between the first time a load is issued and its completion (Unspecified)
system.cpu.lsq0.loadToUse::90-99                  980      2.86%     99.25% # Distribution of cycle latency between the first time a load is issued and its completion (Unspecified)
system.cpu.lsq0.loadToUse::100-109                 24      0.07%     99.32% # Distribution of cycle latency between the first time a load is issued and its completion (Unspecified)
system.cpu.lsq0.loadToUse::110-119                 70      0.20%     99.52% # Distribution of cycle latency between the first time a load is issued and its completion (Unspecified)
system.cpu.lsq0.loadToUse::120-129                 35      0.10%     99.62% # Distribution of cycle latency between the first time a load is issued and its completion (Unspecified)
system.cpu.lsq0.loadToUse::130-139                  7      0.02%     99.64% # Distribution of cycle latency between the first time a load is issued and its completion (Unspecified)
system.cpu.lsq0.loadToUse::160-169                  3      0.01%     99.65% # Distribution of cycle latency between the first time a load is issued and its completion (Unspecified)
system.cpu.lsq0.loadToUse::210-219                  4      0.01%     99.66% # Distribution of cycle latency between the first time a load is issued and its completion (Unspecified)
system.cpu.lsq0.loadToUse::220-229                 10      0.03%     99.69% # Distribution of cycle latency between the first time a load is issued and its completion (Unspecified)
system.cpu.lsq0.loadToUse::230-239                  8      0.02%     99.71% # Distribution of cycle latency between the first time a load is issued and its completion (Unspecified)
system.cpu.lsq0.loadToUse::240-249                  9      0.03%     99.74% # Distribution of cycle latency between the first time a load is issued and its completion (Unspecified)
system.cpu.lsq0.loadToUse::250-259                  8      0.02%     99.76% # Distribution of cycle latency between the first time a load is issued and its completion (Unspecified)
system.cpu.lsq0.loadToUse::260-269                 16      0.05%     99.81% # Distribution of cycle latency between the first time a load is issued and its completion (Unspecified)
system.cpu.lsq0.loadToUse::270-279                  9      0.03%     99.84% # Distribution of cycle latency between the first time a load is issued and its completion (Unspecified)
system.cpu.lsq0.loadToUse::280-289                 15      0.04%     99.88% # Distribution of cycle latency between the first time a load is issued and its completion (Unspecified)
system.cpu.lsq0.loadToUse::290-299                 17      0.05%     99.93% # Distribution of cycle latency between the first time a load is issued and its completion (Unspecified)
system.cpu.lsq0.loadToUse::overflows               24      0.07%    100.00% # Distribution of cycle latency between the first time a load is issued and its completion (Unspecified)
system.cpu.lsq0.loadToUse::min_value                2                       # Distribution of cycle latency between the first time a load is issued and its completion (Unspecified)
system.cpu.lsq0.loadToUse::max_value              370                       # Distribution of cycle latency between the first time a load is issued and its completion (Unspecified)
system.cpu.lsq0.loadToUse::total                34321                       # Distribution of cycle latency between the first time a load is issued and its completion (Unspecified)
system.cpu.mmu.dtb.rdAccesses                   36535                       # TLB accesses on read requests (Count)
system.cpu.mmu.dtb.wrAccesses                   18544                       # TLB accesses on write requests (Count)
system.cpu.mmu.dtb.rdMisses                        95                       # TLB misses on read requests (Count)
system.cpu.mmu.dtb.wrMisses                        22                       # TLB misses on write requests (Count)
system.cpu.mmu.dtb.walker.power_state.pwrStateResidencyTicks::UNDEFINED    230279000                       # Cumulative time (in ticks) in various power states (Tick)
system.cpu.mmu.itb.rdAccesses                       0                       # TLB accesses on read requests (Count)
system.cpu.mmu.itb.wrAccesses                    3269                       # TLB accesses on write requests (Count)
system.cpu.mmu.itb.rdMisses                         0                       # TLB misses on read requests (Count)
system.cpu.mmu.itb.wrMisses                       200                       # TLB misses on write requests (Count)
system.cpu.mmu.itb.walker.power_state.pwrStateResidencyTicks::UNDEFINED    230279000                       # Cumulative time (in ticks) in various power states (Tick)
[...]
system.victimbus.transDist::ReadExResp            118                       # Transaction distribution (Count)
system.victimbus.transDist::ReadSharedReq         1176                       # Transaction distribution (Count)
system.victimbus.pktCount_system.cpu.dcache.mem_side_port::system.victimcache.cpu_side_port         3956                       # Packet count per connected requestor and responder (Count)
system.victimbus.pktSize_system.cpu.dcache.mem_side_port::system.victimcache.cpu_side_port       100096                       # Cumulative packet size per connected requestor and responder (Byte)
system.victimbus.snoops                          1530                       # Total snoops (Count)
system.victimbus.snoopTraffic                   97920                       # Total snoop traffic (Byte)
system.victimbus.snoopFanout::samples            3373                       # Request fanout histogram (Count)
system.victimbus.snoopFanout::mean           0.379188                       # Request fanout histogram (Count)
system.victimbus.snoopFanout::stdev          0.485257                       # Request fanout histogram (Count)
system.victimbus.snoopFanout::underflows            0      0.00%      0.00% # Request fanout histogram (Count)
system.victimbus.snoopFanout::0                  2094     62.08%     62.08% # Request fanout histogram (Count)
system.victimbus.snoopFanout::1                  1279     37.92%    100.00% # Request fanout histogram (Count)
system.victimbus.snoopFanout::overflows             0      0.00%    100.00% # Request fanout histogram (Count)
system.victimbus.snoopFanout::min_value             0                       # Request fanout histogram (Count)
system.victimbus.snoopFanout::max_value             1                       # Request fanout histogram (Count)
system.victimbus.snoopFanout::total              3373                       # Request fanout histogram (Count)
system.victimbus.power_state.pwrStateResidencyTicks::UNDEFINED    230279000                       # Cumulative time (in ticks) in various power states (Tick)
system.victimbus.reqLayer0.occupancy          2383000                       # Layer occupancy (ticks) (Tick)
system.victimbus.reqLayer0.utilization            0.0                       # Layer utilization (Ratio)
system.victimbus.respLayer0.occupancy         4978157                       # Layer occupancy (ticks) (Tick)
system.victimbus.respLayer0.utilization           0.0                       # Layer utilization (Ratio)
system.victimbus.snoop_filter.totRequests         2113                       # Total number of requests made to the snoop filter. (Count)
system.victimbus.snoop_filter.hitSingleRequests          819                       # Number of requests hitting in the snoop filter with a single holder of the requested data. (Count)
system.victimbus.snoop_filter.hitMultiRequests            0                       # Number of requests hitting in the snoop filter with multiple (>1) holders of the requested data. (Count)
system.victimbus.snoop_filter.totSnoops          1279                       # Total number of snoops made to the snoop filter. (Count)
system.victimbus.snoop_filter.hitSingleSnoops         1279                       # Number of snoops hitting in the snoop filter with a single holder of the requested data. (Count)
system.victimbus.snoop_filter.hitMultiSnoops            0                       # Number of snoops hitting in the snoop filter with multiple (>1) holders of the requested data. (Count)
system.victimcache.demandHits::cpu.data            15                       # number of demand (read+write) hits (Count)
system.victimcache.demandHits::total               15                       # number of demand (read+write) hits (Count)
system.victimcache.overallHits::cpu.data           15                       # number of overall hits (Count)
system.victimcache.overallHits::total              15                       # number of overall hits (Count)
system.victimcache.demandMisses::cpu.data         1279                       # number of demand (read+write) misses (Count)
system.victimcache.demandMisses::total           1279                       # number of demand (read+write) misses (Count)
system.victimcache.overallMisses::cpu.data         1279                       # number of overall misses (Count)
system.victimcache.overallMisses::total          1279                       # number of overall misses (Count)
system.victimcache.demandMissLatency::cpu.data    126541000                       # number of demand (read+write) miss ticks (Tick)
system.victimcache.demandMissLatency::total    126541000                       # number of demand (read+write) miss ticks (Tick)
system.victimcache.overallMissLatency::cpu.data    126541000                       # number of overall miss ticks (Tick)
system.victimcache.overallMissLatency::total    126541000                       # number of overall miss ticks (Tick)
system.victimcache.demandAccesses::cpu.data         1294                       # number of demand (read+write) accesses (Count)
system.victimcache.demandAccesses::total         1294                       # number of demand (read+write) accesses (Count)
system.victimcache.overallAccesses::cpu.data         1294                       # number of overall (read+write) accesses (Count)
system.victimcache.overallAccesses::total         1294                       # number of overall (read+write) accesses (Count)
system.victimcache.demandMissRate::cpu.data     0.988408                       # miss rate for demand accesses (Ratio)
system.victimcache.demandMissRate::total     0.988408                       # miss rate for demand accesses (Ratio)
system.victimcache.overallMissRate::cpu.data     0.988408                       # miss rate for overall accesses (Ratio)
system.victimcache.overallMissRate::total     0.988408                       # miss rate for overall accesses (Ratio)
system.victimcache.demandAvgMissLatency::cpu.data 98937.451134                       # average overall miss latency ((Cycle/Count))
system.victimcache.demandAvgMissLatency::total 98937.451134                       # average overall miss latency ((Cycle/Count))
system.victimcache.overallAvgMissLatency::cpu.data 98937.451134                       # average overall miss latency ((Cycle/Count))
system.victimcache.overallAvgMissLatency::total 98937.451134                       # average overall miss latency ((Cycle/Count))
system.victimcache.blockedCycles::no_mshrs          718                       # number of cycles access was blocked (Cycle)
system.victimcache.blockedCycles::no_targets            0                       # number of cycles access was blocked (Cycle)
system.victimcache.blockedCauses::no_mshrs           15                       # number of times access was blocked (Count)
system.victimcache.blockedCauses::no_targets            0                       # number of times access was blocked (Count)
system.victimcache.avgBlocked::no_mshrs     47.866667                       # average number of cycles each access was blocked ((Cycle/Count))
system.victimcache.avgBlocked::no_targets          nan                       # average number of cycles each access was blocked ((Cycle/Count))
system.victimcache.writebacks::writebacks         1530                       # number of writebacks (Count)
system.victimcache.writebacks::total             1530                       # number of writebacks (Count)
system.victimcache.demandMshrMisses::cpu.data         1279                       # number of demand (read+write) MSHR misses (Count)
system.victimcache.demandMshrMisses::total         1279                       # number of demand (read+write) MSHR misses (Count)
system.victimcache.overallMshrMisses::cpu.data         1279                       # number of overall MSHR misses (Count)
system.victimcache.overallMshrMisses::total         1279                       # number of overall MSHR misses (Count)
system.victimcache.demandMshrMissLatency::cpu.data    126541000                       # number of demand (read+write) MSHR miss ticks (Tick)
system.victimcache.demandMshrMissLatency::total    126541000                       # number of demand (read+write) MSHR miss ticks (Tick)
system.victimcache.overallMshrMissLatency::cpu.data    126541000                       # number of overall MSHR miss ticks (Tick)
system.victimcache.overallMshrMissLatency::total    126541000                       # number of overall MSHR miss ticks (Tick)
system.victimcache.demandMshrMissRate::cpu.data     0.988408                       # mshr miss ratio for demand accesses (Ratio)
system.victimcache.demandMshrMissRate::total     0.988408                       # mshr miss ratio for demand accesses (Ratio)
system.victimcache.overallMshrMissRate::cpu.data     0.988408                       # mshr miss ratio for overall accesses (Ratio)
system.victimcache.overallMshrMissRate::total     0.988408                       # mshr miss ratio for overall accesses (Ratio)
system.victimcache.demandAvgMshrMissLatency::cpu.data 98937.451134                       # average overall mshr miss latency ((Cycle/Count))
system.victimcache.demandAvgMshrMissLatency::total 98937.451134                       # average overall mshr miss latency ((Cycle/Count))
system.victimcache.overallAvgMshrMissLatency::cpu.data 98937.451134                       # average overall mshr miss latency ((Cycle/Count))
system.victimcache.overallAvgMshrMissLatency::total 98937.451134                       # average overall mshr miss latency ((Cycle/Count))
system.victimcache.replacements                   251                       # number of replacements (Count)
system.victimcache.ReadExReq.misses::cpu.data          118                       # number of ReadExReq misses (Count)
system.victimcache.ReadExReq.misses::total          118                       # number of ReadExReq misses (Count)
system.victimcache.ReadExReq.missLatency::cpu.data     12045000                       # number of ReadExReq miss ticks (Tick)
system.victimcache.ReadExReq.missLatency::total     12045000                       # number of ReadExReq miss ticks (Tick)
system.victimcache.ReadExReq.accesses::cpu.data          118                       # number of ReadExReq accesses(hits+misses) (Count)
system.victimcache.ReadExReq.accesses::total          118                       # number of ReadExReq accesses(hits+misses) (Count)
system.victimcache.ReadExReq.missRate::cpu.data            1                       # miss rate for ReadExReq accesses (Ratio)
system.victimcache.ReadExReq.missRate::total            1                       # miss rate for ReadExReq accesses (Ratio)
system.victimcache.ReadExReq.avgMissLatency::cpu.data 102076.271186                       # average ReadExReq miss latency ((Tick/Count))
system.victimcache.ReadExReq.avgMissLatency::total 102076.271186                       # average ReadExReq miss latency ((Tick/Count))
system.victimcache.ReadExReq.mshrMisses::cpu.data          118                       # number of ReadExReq MSHR misses (Count)
system.victimcache.ReadExReq.mshrMisses::total          118                       # number of ReadExReq MSHR misses (Count)
system.victimcache.ReadExReq.mshrMissLatency::cpu.data     12045000                       # number of ReadExReq MSHR miss ticks (Tick)
system.victimcache.ReadExReq.mshrMissLatency::total     12045000                       # number of ReadExReq MSHR miss ticks (Tick)
system.victimcache.ReadExReq.mshrMissRate::cpu.data            1                       # mshr miss rate for ReadExReq accesses (Ratio)
system.victimcache.ReadExReq.mshrMissRate::total            1                       # mshr miss rate for ReadExReq accesses (Ratio)
system.victimcache.ReadExReq.avgMshrMissLatency::cpu.data 102076.271186                       # average ReadExReq mshr miss latency ((Tick/Count))
system.victimcache.ReadExReq.avgMshrMissLatency::total 102076.271186                       # average ReadExReq mshr miss latency ((Tick/Count))
system.victimcache.ReadSharedReq.hits::cpu.data           15                       # number of ReadSharedReq hits (Count)
system.victimcache.ReadSharedReq.hits::total           15                       # number of ReadSharedReq hits (Count)
system.victimcache.ReadSharedReq.misses::cpu.data         1161                       # number of ReadSharedReq misses (Count)
system.victimcache.ReadSharedReq.misses::total         1161                       # number of ReadSharedReq misses (Count)
system.victimcache.ReadSharedReq.missLatency::cpu.data    114496000                       # number of ReadSharedReq miss ticks (Tick)
system.victimcache.ReadSharedReq.missLatency::total    114496000                       # number of ReadSharedReq miss ticks (Tick)
system.victimcache.ReadSharedReq.accesses::cpu.data         1176                       # number of ReadSharedReq accesses(hits+misses) (Count)
system.victimcache.ReadSharedReq.accesses::total         1176                       # number of ReadSharedReq accesses(hits+misses) (Count)
system.victimcache.ReadSharedReq.missRate::cpu.data     0.987245                       # miss rate for ReadSharedReq accesses (Ratio)
system.victimcache.ReadSharedReq.missRate::total     0.987245                       # miss rate for ReadSharedReq accesses (Ratio)
system.victimcache.ReadSharedReq.avgMissLatency::cpu.data 98618.432386                       # average ReadSharedReq miss latency ((Tick/Count))
system.victimcache.ReadSharedReq.avgMissLatency::total 98618.432386                       # average ReadSharedReq miss latency ((Tick/Count))
system.victimcache.ReadSharedReq.mshrMisses::cpu.data         1161                       # number of ReadSharedReq MSHR misses (Count)
system.victimcache.ReadSharedReq.mshrMisses::total         1161                       # number of ReadSharedReq MSHR misses (Count)
system.victimcache.ReadSharedReq.mshrMissLatency::cpu.data    114496000                       # number of ReadSharedReq MSHR miss ticks (Tick)
system.victimcache.ReadSharedReq.mshrMissLatency::total    114496000                       # number of ReadSharedReq MSHR miss ticks (Tick)
system.victimcache.ReadSharedReq.mshrMissRate::cpu.data     0.987245                       # mshr miss rate for ReadSharedReq accesses (Ratio)
system.victimcache.ReadSharedReq.mshrMissRate::total     0.987245                       # mshr miss rate for ReadSharedReq accesses (Ratio)
system.victimcache.ReadSharedReq.avgMshrMissLatency::cpu.data 98618.432386                       # average ReadSharedReq mshr miss latency ((Tick/Count))
system.victimcache.ReadSharedReq.avgMshrMissLatency::total 98618.432386                       # average ReadSharedReq mshr miss latency ((Tick/Count))
system.victimcache.UpgradeReq.misses::cpu.data          549                       # number of UpgradeReq misses (Count)
system.victimcache.UpgradeReq.misses::total          549                       # number of UpgradeReq misses (Count)
system.victimcache.UpgradeReq.accesses::cpu.data          549                       # number of UpgradeReq accesses(hits+misses) (Count)
system.victimcache.UpgradeReq.accesses::total          549                       # number of UpgradeReq accesses(hits+misses) (Count)
system.victimcache.UpgradeReq.missRate::cpu.data            1                       # miss rate for UpgradeReq accesses (Ratio)
system.victimcache.UpgradeReq.missRate::total            1                       # miss rate for UpgradeReq accesses (Ratio)
system.victimcache.UpgradeReq.mshrMisses::cpu.data          549                       # number of UpgradeReq MSHR misses (Count)
system.victimcache.UpgradeReq.mshrMisses::total          549                       # number of UpgradeReq MSHR misses (Count)
system.victimcache.UpgradeReq.mshrMissLatency::cpu.data     28923000                       # number of UpgradeReq MSHR miss ticks (Tick)
system.victimcache.UpgradeReq.mshrMissLatency::total     28923000                       # number of UpgradeReq MSHR miss ticks (Tick)
system.victimcache.UpgradeReq.mshrMissRate::cpu.data            1                       # mshr miss rate for UpgradeReq accesses (Ratio)
system.victimcache.UpgradeReq.mshrMissRate::total            1                       # mshr miss rate for UpgradeReq accesses (Ratio)
system.victimcache.UpgradeReq.avgMshrMissLatency::cpu.data 52683.060109                       # average UpgradeReq mshr miss latency ((Tick/Count))
system.victimcache.UpgradeReq.avgMshrMissLatency::total 52683.060109                       # average UpgradeReq mshr miss latency ((Tick/Count))
system.victimcache.WritebackClean.hits::writebacks          125                       # number of WritebackClean hits (Count)
system.victimcache.WritebackClean.hits::total          125                       # number of WritebackClean hits (Count)
system.victimcache.WritebackClean.accesses::writebacks          125                       # number of WritebackClean accesses(hits+misses) (Count)
system.victimcache.WritebackClean.accesses::total          125                       # number of WritebackClean accesses(hits+misses) (Count)
system.victimcache.WritebackDirty.hits::writebacks          145                       # number of WritebackDirty hits (Count)
system.victimcache.WritebackDirty.hits::total          145                       # number of WritebackDirty hits (Count)
system.victimcache.WritebackDirty.accesses::writebacks          145                       # number of WritebackDirty accesses(hits+misses) (Count)
system.victimcache.WritebackDirty.accesses::total          145                       # number of WritebackDirty accesses(hits+misses) (Count)
system.victimcache.power_state.pwrStateResidencyTicks::UNDEFINED    230279000                       # Cumulative time (in ticks) in various power states (Tick)
system.victimcache.tags.tagsInUse            3.146140                       # Average ticks per tags in use ((Tick/Count))
system.victimcache.tags.totalRefs                 285                       # Total number of references to valid blocks. (Count)
system.victimcache.tags.sampledRefs               270                       # Sample count of references to valid blocks. (Count)
system.victimcache.tags.avgRefs              1.055556                       # Average number of references to valid blocks. ((Count/Count))
system.victimcache.tags.warmupTick           47125000                       # The tick when the warmup percentage was hit. (Tick)
system.victimcache.tags.occupancies::writebacks     3.146140                       # Average occupied blocks per tick, per requestor ((Count/Tick))
system.victimcache.tags.avgOccs::writebacks     0.786535                       # Average percentage of cache occupancy ((Ratio/Tick))
system.victimcache.tags.avgOccs::total       0.786535                       # Average percentage of cache occupancy ((Ratio/Tick))
system.victimcache.tags.occupanciesTaskId::1024            4                       # Occupied blocks per task id (Count)
system.victimcache.tags.ageTaskId_1024::0            4                       # Occupied blocks per task id, per block age (Count)
system.victimcache.tags.ratioOccsTaskId::1024            1                       # Ratio of occupied blocks and all blocks, per task id (Ratio)
system.victimcache.tags.tagAccesses              8722                       # Number of tag accesses (Count)
system.victimcache.tags.dataAccesses             8722                       # Number of data accesses (Count)
system.victimcache.tags.power_state.pwrStateResidencyTicks::UNDEFINED    230279000                       # Cumulative time (in ticks) in various power states (Tick)
system.workload.inst.arm                            0                       # number of arm instructions executed (Count)
system.workload.inst.quiesce                        0                       # number of quiesce instructions executed (Count)

---------- End Simulation Statistics   ----------
