
---------- Begin Simulation Statistics ----------
simSeconds                                   0.002049                       # Number of seconds simulated (Second)
simTicks                                   2048543000                       # Number of ticks simulated (Tick)
finalTick                                  2048543000                       # Number of ticks from beginning of simulation (restored from checkpoints and never reset) (Tick)
simFreq                                  1000000000000                       # The number of ticks per simulated second ((Tick/Second))
hostSeconds                                      2.61                       # Real time elapsed on the host (Second)
hostTickRate                                784742751                       # The number of ticks simulated per host second (ticks/s) ((Tick/Second))
hostMemory                                     644964                       # Number of bytes of host memory used (Byte)
simInsts                                       139480                       # Number of instructions simulated (Count)
simOps                                         204730                       # Number of ops (including micro ops) simulated (Count)
hostInstRate                                    53428                       # Simulator instruction rate (inst/s) ((Count/Second))
hostOpRate                                      78422                       # Simulator op (including micro ops) rate (op/s) ((Count/Second))
system.clk_domain.clock                          1000                       # Clock period in ticks (Tick)
system.clk_domain.voltage_domain.voltage            1                       # Voltage in Volts (Volt)
system.cpu.numCycles                          2048544                       # Number of cpu cycles simulated (Cycle)
system.cpu.numWorkItemsStarted                      0                       # Number of work items this cpu started (Count)
system.cpu.numWorkItemsCompleted                    0                       # Number of work items this cpu completed (Count)
system.cpu.instsAdded                          217328                       # Number of instructions added to the IQ (excludes non-spec) (Count)
system.cpu.nonSpecInstsAdded                        1                       # Number of non-speculative instructions added to the IQ (Count)
system.cpu.instsIssued                         214382                       # Number of instructions issued (Count)
system.cpu.squashedInstsIssued                     44                       # Number of squashed instructions issued (Count)
system.cpu.squashedInstsExamined                12585                       # Number of squashed instructions iterated over during squash; mainly for profiling (Count)
system.cpu.squashedOperandsExamined             14453                       # Number of squashed operands that are examined and possibly removed from graph (Count)
system.cpu.squashedNonSpecRemoved                   1                       # Number of squashed non-spec instructions that were removed (Count)
system.cpu.numIssuedDist::samples             2026264                       # Number of insts issued each cycle (Count)
system.cpu.numIssuedDist::mean               0.105802                       # Number of insts issued each cycle (Count)
system.cpu.numIssuedDist::stdev              0.593385                       # Number of insts issued each cycle (Count)
system.cpu.numIssuedDist::underflows                0      0.00%      0.00% # Number of insts issued each cycle (Count)
system.cpu.numIssuedDist::0                   1918611     94.69%     94.69% # Number of insts issued each cycle (Count)
system.cpu.numIssuedDist::1                     73249      3.61%     98.30% # Number of insts issued each cycle (Count)
system.cpu.numIssuedDist::2                      7410      0.37%     98.67% # Number of insts issued each cycle (Count)
system.cpu.numIssuedDist::3                      6101      0.30%     98.97% # Number of insts issued each cycle (Count)
system.cpu.numIssuedDist::4                      7207      0.36%     99.32% # Number of insts issued each cycle (Count)
system.cpu.numIssuedDist::5                      3968      0.20%     99.52% # Number of insts issued each cycle (Count)
system.cpu.numIssuedDist::6                      8954      0.44%     99.96% # Number of insts issued each cycle (Count)
system.cpu.numIssuedDist::7                       494      0.02%     99.99% # Number of insts issued each cycle (Count)
system.cpu.numIssuedDist::8                       270      0.01%    100.00% # Number of insts issued each cycle (Count)
system.cpu.numIssuedDist::overflows                 0      0.00%    100.00% # Number of insts issued each cycle (Count)
system.cpu.numIssuedDist::min_value                 0                       # Number of insts issued each cycle (Count)
system.cpu.numIssuedDist::max_value                 8                       # Number of insts issued each cycle (Count)
system.cpu.numIssuedDist::total               2026264                       # Number of insts issued each cycle (Count)
system.cpu.statFuBusy::No_OpClass                   0      0.00%      0.00% # attempts to use FU when none available (Count)
system.cpu.statFuBusy::IntAlu                     249     75.68%     75.68% # attempts to use FU when none available (Count)
system.cpu.statFuBusy::IntMult                      0      0.00%     75.68% # attempts to use FU when none available (Count)
system.cpu.statFuBusy::IntDiv                       0      0.00%     75.68% # attempts to use FU when none available (Count)
system.cpu.statFuBusy::FloatAdd                     0      0.00%     75.68% # attempts to use FU when none available (Count)
system.cpu.statFuBusy::FloatCmp                     0      0.00%     75.68% # attempts to use FU when none available (Count)
system.cpu.statFuBusy::FloatCvt                     0      0.00%     75.68% # attempts to use FU when none available (Count)
system.cpu.statFuBusy::FloatMult                    0      0.00%     75.68% # attempts to use FU when none available (Count)
system.cpu.statFuBusy::FloatMultAcc                 0      0.00%     75.68% # attempts to use FU when none available (Count)
system.cpu.statFuBusy::FloatDiv                     0      0.00%     75.68% # attempts to use FU when none available (Count)
system.cpu.statFuBusy::FloatMisc                    0      0.00%     75.68% # attempts to use FU when none available (Count)
system.cpu.statFuBusy::FloatSqrt                    0      0.00%     75.68% # attempts to use FU when none available (Count)
system.cpu.statFuBusy::SimdAdd                      0      0.00%     75.68% # attempts to use FU when none available (Count)
system.cpu.statFuBusy::SimdAddAcc                   0      0.00%     75.68% # attempts to use FU when none available (Count)
system.cpu.statFuBusy::SimdAlu                     11      3.34%     79.03% # attempts to use FU when none available (Count)
system.cpu.statFuBusy::SimdCmp                      0      0.00%     79.03% # attempts to use FU when none available (Count)
system.cpu.statFuBusy::SimdCvt                      1      0.30%     79.33% # attempts to use FU when none available (Count)
system.cpu.statFuBusy::SimdMisc                     3      0.91%     80.24% # attempts to use FU when none available (Count)
system.cpu.statFuBusy::SimdMult                     0      0.00%     80.24% # attempts to use FU when none available (Count)
system.cpu.statFuBusy::SimdMultAcc                  0      0.00%     80.24% # attempts to use FU when none available (Count)
system.cpu.statFuBusy::SimdShift                    0      0.00%     80.24% # attempts to use FU when none available (Count)
system.cpu.statFuBusy::SimdShiftAcc                 0      0.00%     80.24% # attempts to use FU when none available (Count)
system.cpu.statFuBusy::SimdDiv                      0      0.00%     80.24% # attempts to use FU when none available (Count)
system.cpu.statFuBusy::SimdSqrt                     0      0.00%     80.24% # attempts to use FU when none available (Count)
system.cpu.statFuBusy::SimdFloatAdd                 0      0.00%     80.24% # attempts to use FU when none available (Count)
system.cpu.statFuBusy::SimdFloatAlu                 0      0.00%     80.24% # attempts to use FU when none available (Count)
system.cpu.statFuBusy::SimdFloatCmp                 0      0.00%     80.24% # attempts to use FU when none available (Count)
system.cpu.statFuBusy::SimdFloatCvt                 0      0.00%     80.24% # attempts to use FU when none available (Count)
system.cpu.statFuBusy::SimdFloatDiv                 0      0.00%     80.24% # attempts to use FU when none available (Count)
system.cpu.statFuBusy::SimdFloatMisc                0      0.00%     80.24% # attempts to use FU when none available (Count)
system.cpu.statFuBusy::SimdFloatMult                0      0.00%     80.24% # attempts to use FU when none available (Count)
system.cpu.statFuBusy::SimdFloatMultAcc             0      0.00%     80.24% # attempts to use FU when none available (Count)
system.cpu.statFuBusy::SimdFloatSqrt                0      0.00%     80.24% # attempts to use FU when none available (Count)
system.cpu.statFuBusy::SimdReduceAdd                0      0.00%     80.24% # attempts to use FU when none available (Count)
system.cpu.statFuBusy::SimdReduceAlu                0      0.00%     80.24% # attempts to use FU when none available (Count)
system.cpu.statFuBusy::SimdReduceCmp                0      0.00%     80.24% # attempts to use FU when none available (Count)
system.cpu.statFuBusy::SimdFloatReduceAdd            0      0.00%     80.24% # attempts to use FU when none available (Count)
system.cpu.statFuBusy::SimdFloatReduceCmp            0      0.00%     80.24% # attempts to use FU when none available (Count)
system.cpu.statFuBusy::SimdAes                      0      0.00%     80.24% # attempts to use FU when none available (Count)
system.cpu.statFuBusy::SimdAesMix                   0      0.00%     80.24% # attempts to use FU when none available (Count)
system.cpu.statFuBusy::SimdSha1Hash                 0      0.00%     80.24% # attempts to use FU when none available (Count)
system.cpu.statFuBusy::SimdSha1Hash2                0      0.00%     80.24% # attempts to use FU when none available (Count)
system.cpu.statFuBusy::SimdSha256Hash               0      0.00%     80.24% # attempts to use FU when none available (Count)
system.cpu.statFuBusy::SimdSha256Hash2              0      0.00%     80.24% # attempts to use FU when none available (Count)
system.cpu.statFuBusy::SimdShaSigma2                0      0.00%     80.24% # attempts to use FU when none available (Count)
system.cpu.statFuBusy::SimdShaSigma3                0      0.00%     80.24% # attempts to use FU when none available (Count)
system.cpu.statFuBusy::SimdPredAlu                  0      0.00%     80.24% # attempts to use FU when none available (Count)
system.cpu.statFuBusy::MemRead                     27      8.21%     88.45% # attempts to use FU when none available (Count)
system.cpu.statFuBusy::MemWrite                    18      5.47%     93.92% # attempts to use FU when none available (Count)
system.cpu.statFuBusy::FloatMemRead                 6      1.82%     95.74% # attempts to use FU when none available (Count)
system.cpu.statFuBusy::FloatMemWrite               14      4.26%    100.00% # attempts to use FU when none available (Count)
system.cpu.statFuBusy::IprAccess                    0      0.00%    100.00% # attempts to use FU when none available (Count)
system.cpu.statFuBusy::InstPrefetch                 0      0.00%    100.00% # attempts to use FU when none available (Count)
system.cpu.statIssuedInstType_0::No_OpClass          646      0.30%      0.30% # Number of instructions issued per FU type, per thread (Count)
system.cpu.statIssuedInstType_0::IntAlu        101493     47.34%     47.64% # Number of instructions issued per FU type, per thread (Count)
system.cpu.statIssuedInstType_0::IntMult            6      0.00%     47.65% # Number of instructions issued per FU type, per thread (Count)
system.cpu.statIssuedInstType_0::IntDiv            29      0.01%     47.66% # Number of instructions issued per FU type, per thread (Count)
system.cpu.statIssuedInstType_0::FloatAdd          136      0.06%     47.72% # Number of instructions issued per FU type, per thread (Count)
system.cpu.statIssuedInstType_0::FloatCmp            0      0.00%     47.72% # Number of instructions issued per FU type, per thread (Count)
system.cpu.statIssuedInstType_0::FloatCvt            0      0.00%     47.72% # Number of instructions issued per FU type, per thread (Count)
system.cpu.statIssuedInstType_0::FloatMult            0      0.00%     47.72% # Number of instructions issued per FU type, per thread (Count)
system.cpu.statIssuedInstType_0::FloatMultAcc            0      0.00%     47.72% # Number of instructions issued per FU type, per thread (Count)
system.cpu.statIssuedInstType_0::FloatDiv            0      0.00%     47.72% # Number of instructions issued per FU type, per thread (Count)
system.cpu.statIssuedInstType_0::FloatMisc            0      0.00%     47.72% # Number of instructions issued per FU type, per thread (Count)
system.cpu.statIssuedInstType_0::FloatSqrt            0      0.00%     47.72% # Number of instructions issued per FU type, per thread (Count)
system.cpu.statIssuedInstType_0::SimdAdd            0      0.00%     47.72% # Number of instructions issued per FU type, per thread (Count)
system.cpu.statIssuedInstType_0::SimdAddAcc            0      0.00%     47.72% # Number of instructions issued per FU type, per thread (Count)
system.cpu.statIssuedInstType_0::SimdAlu        16550      7.72%     55.44% # Number of instructions issued per FU type, per thread (Count)
system.cpu.statIssuedInstType_0::SimdCmp            0      0.00%     55.44% # Number of instructions issued per FU type, per thread (Count)
system.cpu.statIssuedInstType_0::SimdCvt           49      0.02%     55.47% # Number of instructions issued per FU type, per thread (Count)
system.cpu.statIssuedInstType_0::SimdMisc         8411      3.92%     59.39% # Number of instructions issued per FU type, per thread (Count)
system.cpu.statIssuedInstType_0::SimdMult            0      0.00%     59.39% # Number of instructions issued per FU type, per thread (Count)
system.cpu.statIssuedInstType_0::SimdMultAcc            0      0.00%     59.39% # Number of instructions issued per FU type, per thread (Count)
system.cpu.statIssuedInstType_0::SimdShift            0      0.00%     59.39% # Number of instructions issued per FU type, per thread (Count)
system.cpu.statIssuedInstType_0::SimdShiftAcc            0      0.00%     59.39% # Number of instructions issued per FU type, per thread (Count)
system.cpu.statIssuedInstType_0::SimdDiv            0      0.00%     59.39% # Number of instructions issued per FU type, per thread (Count)
system.cpu.statIssuedInstType_0::SimdSqrt            0      0.00%     59.39% # Number of instructions issued per FU type, per thread (Count)
system.cpu.statIssuedInstType_0::SimdFloatAdd            0      0.00%     59.39% # Number of instructions issued per FU type, per thread (Count)
system.cpu.statIssuedInstType_0::SimdFloatAlu            0      0.00%     59.39% # Number of instructions issued per FU type, per thread (Count)
system.cpu.statIssuedInstType_0::SimdFloatCmp            0      0.00%     59.39% # Number of instructions issued per FU type, per thread (Count)
system.cpu.statIssuedInstType_0::SimdFloatCvt         8193      3.82%     63.21% # Number of instructions issued per FU type, per thread (Count)
system.cpu.statIssuedInstType_0::SimdFloatDiv            0      0.00%     63.21% # Number of instructions issued per FU type, per thread (Count)
system.cpu.statIssuedInstType_0::SimdFloatMisc            0      0.00%     63.21% # Number of instructions issued per FU type, per thread (Count)
system.cpu.statIssuedInstType_0::SimdFloatMult            0      0.00%     63.21% # Number of instructions issued per FU type, per thread (Count)
system.cpu.statIssuedInstType_0::SimdFloatMultAcc            0      0.00%     63.21% # Number of instructions issued per FU type, per thread (Count)
system.cpu.statIssuedInstType_0::SimdFloatSqrt            0      0.00%     63.21% # Number of instructions issued per FU type, per thread (Count)
system.cpu.statIssuedInstType_0::SimdReduceAdd            0      0.00%     63.21% # Number of instructions issued per FU type, per thread (Count)
system.cpu.statIssuedInstType_0::SimdReduceAlu            0      0.00%     63.21% # Number of instructions issued per FU type, per thread (Count)
system.cpu.statIssuedInstType_0::SimdReduceCmp            0      0.00%     63.21% # Number of instructions issued per FU type, per thread (Count)
system.cpu.statIssuedInstType_0::SimdFloatReduceAdd            0      0.00%     63.21% # Number of instructions issued per FU type, per thread (Count)
system.cpu.statIssuedInstType_0::SimdFloatReduceCmp            0      0.00%     63.21% # Number of instructions issued per FU type, per thread (Count)
system.cpu.statIssuedInstType_0::SimdAes            0      0.00%     63.21% # Number of instructions issued per FU type, per thread (Count)
system.cpu.statIssuedInstType_0::SimdAesMix            0      0.00%     63.21% # Number of instructions issued per FU type, per thread (Count)
system.cpu.statIssuedInstType_0::SimdSha1Hash            0      0.00%     63.21% # Number of instructions issued per FU type, per thread (Count)
system.cpu.statIssuedInstType_0::SimdSha1Hash2            0      0.00%     63.21% # Number of instructions issued per FU type, per thread (Count)
system.cpu.statIssuedInstType_0::SimdSha256Hash            0      0.00%     63.21% # Number of instructions issued per FU type, per thread (Count)
system.cpu.statIssuedInstType_0::SimdSha256Hash2            0      0.00%     63.21% # Number of instructions issued per FU type, per thread (Count)
system.cpu.statIssuedInstType_0::SimdShaSigma2            0      0.00%     63.21% # Number of instructions issued per FU type, per thread (Count)
system.cpu.statIssuedInstType_0::SimdShaSigma3            0      0.00%     63.21% # Number of instructions issued per FU type, per thread (Count)
system.cpu.statIssuedInstType_0::SimdPredAlu            0      0.00%     63.21% # Number of instructions issued per FU type, per thread (Count)
system.cpu.statIssuedInstType_0::MemRead         2799      1.31%     64.52% # Number of instructions issued per FU type, per thread (Count)
system.cpu.statIssuedInstType_0::MemWrite         1725      0.80%     65.32% # Number of instructions issued per FU type, per thread (Count)
system.cpu.statIssuedInstType_0::FloatMemRead           88      0.04%     65.36% # Number of instructions issued per FU type, per thread (Count)
system.cpu.statIssuedInstType_0::FloatMemWrite        74257     34.64%    100.00% # Number of instructions issued per FU type, per thread (Count)
system.cpu.statIssuedInstType_0::IprAccess            0      0.00%    100.00% # Number of instructions issued per FU type, per thread (Count)
system.cpu.statIssuedInstType_0::InstPrefetch            0      0.00%    100.00% # Number of instructions issued per FU type, per thread (Count)
system.cpu.statIssuedInstType_0::total         214382                       # Number of instructions issued per FU type, per thread (Count)
system.cpu.issueRate                         0.104651                       # Inst issue rate ((Count/Cycle))
system.cpu.fuBusy                                 329                       # FU busy when requested (Count)
system.cpu.fuBusyRate                        0.001535                       # FU busy rate (busy events/executed inst) ((Count/Count))
system.cpu.intInstQueueReads                  2239709                       # Number of integer instruction queue reads (Count)
system.cpu.intInstQueueWrites                  121860                       # Number of integer instruction queue writes (Count)
system.cpu.intInstQueueWakeupAccesses          104949                       # Number of integer instruction queue wakeup accesses (Count)
system.cpu.fpInstQueueReads                    215686                       # Number of floating instruction queue reads (Count)
system.cpu.fpInstQueueWrites                   108064                       # Number of floating instruction queue writes (Count)
system.cpu.fpInstQueueWakeupAccesses           107788                       # Number of floating instruction queue wakeup accesses (Count)
system.cpu.vecInstQueueReads                        0                       # Number of vector instruction queue reads (Count)
system.cpu.vecInstQueueWrites                       0                       # Number of vector instruction queue writes (Count)
system.cpu.vecInstQueueWakeupAccesses               0                       # Number of vector instruction queue wakeup accesses (Count)
system.cpu.intAluAccesses                      106205                       # Number of integer alu accesses (Count)
system.cpu.fpAluAccesses                       107860                       # Number of floating point alu accesses (Count)
system.cpu.vecAluAccesses                           0                       # Number of vector alu accesses (Count)
system.cpu.idleCycles                               0                       # Number of cycles IEW is idle (Cycle)
system.cpu.squashCycles                           599                       # Number of cycles IEW is squashing (Cycle)
system.cpu.blockCycles                           1794                       # Number of cycles IEW is blocking (Cycle)
system.cpu.unblockCycles                       782600                       # Number of cycles IEW is unblocking (Cycle)
system.cpu.dispatchedInsts                     217329                       # Number of instructions dispatched to IQ (Count)
system.cpu.dispSquashedInsts                      122                       # Number of squashed instructions skipped by dispatch (Count)
system.cpu.dispLoadInsts                         3130                       # Number of dispatched load instructions (Count)
system.cpu.dispStoreInsts                       76320                       # Number of dispatched store instructions (Count)
system.cpu.dispNonSpecInsts                         1                       # Number of dispatched non-speculative instructions (Count)
system.cpu.iqFullEvents                             8                       # Number of times the IQ has become full, causing a stall (Count)
system.cpu.lsqFullEvents                       778495                       # Number of times the LSQ has become full, causing a stall (Count)
system.cpu.memOrderViolationEvents                 11                       # Number of memory order violations (Count)
system.cpu.predictedTakenIncorrect                 54                       # Number of branches that were predicted taken incorrectly (Count)
system.cpu.predictedNotTakenIncorrect             639                       # Number of branches that were predicted not taken incorrectly (Count)
system.cpu.branchMispredicts                      693                       # Number of branch mispredicts detected at execute (Count)
system.cpu.numInsts                            213478                       # Number of executed instructions (Count)
system.cpu.numLoadInsts                          2727                       # Number of load instructions executed (Count)
system.cpu.numSquashedInsts                       898                       # Number of squashed instructions skipped in execute (Count)
system.cpu.numSwp                                   0                       # Number of swp insts executed (Count)
system.cpu.numNop                                   0                       # Number of nop insts executed (Count)
system.cpu.numRefs                              78626                       # Number of memory reference insts executed (Count)
system.cpu.numBranches                          10608                       # Number of branches executed (Count)
system.cpu.numStoreInsts                        75899                       # Number of stores executed (Count)
system.cpu.numRate                           0.104210                       # Inst execution rate ((Count/Cycle))
system.cpu.instsToCommit                       213139                       # Cumulative count of insts sent to commit (Count)
system.cpu.writebackCount                      212737                       # Cumulative count of insts written-back (Count)
system.cpu.producerInst                         83184                       # Number of instructions producing a value (Count)
system.cpu.consumerInst                        105859                       # Number of instructions consuming a value (Count)
system.cpu.wbRate                            0.103848                       # Insts written-back per cycle ((Count/Cycle))
system.cpu.wbFanout                          0.785800                       # Average fanout of values written-back ((Count/Count))
system.cpu.timesIdled                             307                       # Number of times that the entire CPU went into an idle state and unscheduled itself (Count)
system.cpu.idleCycles                           22280                       # Total number of cycles that the CPU has spent unscheduled due to idling (Cycle)
system.cpu.committedInsts                      139480                       # Number of Instructions Simulated (Count)
system.cpu.committedOps                        204730                       # Number of Ops (including micro ops) Simulated (Count)
system.cpu.cpi                              14.687009                       # CPI: Cycles Per Instruction ((Cycle/Count))
system.cpu.totalCpi                         14.687009                       # CPI: Total CPI of All Threads ((Cycle/Count))
system.cpu.ipc                               0.068087                       # IPC: Instructions Per Cycle ((Count/Cycle))
system.cpu.totalIpc                          0.068087                       # IPC: Total IPC of All Threads ((Count/Cycle))
system.cpu.intRegfileReads                     279425                       # Number of integer regfile reads (Count)
system.cpu.intRegfileWrites                     92467                       # Number of integer regfile writes (Count)
system.cpu.fpRegfileReads                      132626                       # Number of floating regfile reads (Count)
system.cpu.fpRegfileWrites                      33497                       # Number of floating regfile writes (Count)
system.cpu.ccRegfileReads                       60140                       # number of cc regfile reads (Count)
system.cpu.ccRegfileWrites                      56405                       # number of cc regfile writes (Count)
system.cpu.miscRegfileReads                    100859                       # number of misc regfile reads (Count)
system.cpu.MemDepUnit__0.insertedLoads           3130                       # Number of loads inserted to the mem dependence unit. (Count)
system.cpu.MemDepUnit__0.insertedStores         76320                       # Number of stores inserted to the mem dependence unit. (Count)
system.cpu.MemDepUnit__0.conflictingLoads           24                       # Number of conflicting loads. (Count)
system.cpu.MemDepUnit__0.conflictingStores            4                       # Number of conflicting stores. (Count)
system.cpu.MemDepUnit__1.insertedLoads              0                       # Number of loads inserted to the mem dependence unit. (Count)
system.cpu.MemDepUnit__1.insertedStores             0                       # Number of stores inserted to the mem dependence unit. (Count)
system.cpu.MemDepUnit__1.conflictingLoads            0                       # Number of conflicting loads. (Count)
system.cpu.MemDepUnit__1.conflictingStores            0                       # Number of conflicting stores. (Count)
system.cpu.MemDepUnit__2.insertedLoads              0                       # Number of loads inserted to the mem dependence unit. (Count)
system.cpu.MemDepUnit__2.insertedStores             0                       # Number of stores inserted to the mem dependence unit. (Count)
system.cpu.MemDepUnit__2.conflictingLoads            0                       # Number of conflicting loads. (Count)
system.cpu.MemDepUnit__2.conflictingStores            0                       # Number of conflicting stores. (Count)
system.cpu.MemDepUnit__3.insertedLoads              0                       # Number of loads inserted to the mem dependence unit. (Count)
system.cpu.MemDepUnit__3.insertedStores             0                       # Number of stores inserted to the mem dependence unit. (Count)
system.cpu.MemDepUnit__3.conflictingLoads            0                       # Number of conflicting loads. (Count)
system.cpu.MemDepUnit__3.conflictingStores            0                       # Number of conflicting stores. (Count)
system.cpu.branchPred.lookups                   12221                       # Number of BP lookups (Count)
system.cpu.branchPred.condPredicted             11033                       # Number of conditional branches predicted (Count)
system.cpu.branchPred.condIncorrect               682                       # Number of conditional branches incorrect (Count)
system.cpu.branchPred.BTBLookups                10059                       # Number of BTB lookups (Count)
system.cpu.branchPred.BTBHits                    9347                       # Number of BTB hits (Count)
system.cpu.branchPred.BTBHitRatio            0.929218                       # BTB Hit Ratio (Ratio)
system.cpu.branchPred.RASUsed                     266                       # Number of times the RAS was used to get a target. (Count)
system.cpu.branchPred.RASIncorrect                  0                       # Number of incorrect RAS predictions. (Count)
system.cpu.branchPred.indirectLookups             316                       # Number of indirect predictor lookups. (Count)
system.cpu.branchPred.indirectHits                 15                       # Number of indirect target hits. (Count)
system.cpu.branchPred.indirectMisses              301                       # Number of indirect misses. (Count)
system.cpu.branchPred.indirectMispredicted           92                       # Number of mispredicted indirect branches. (Count)
system.cpu.commit.commitSquashedInsts           12364                       # The number of squashed insts skipped by commit (Count)
system.cpu.commit.branchMispredicts               578                       # The number of times a branch was mispredicted (Count)
system.cpu.commit.numCommittedDist::samples      2024276                       # Number of insts commited each cycle (Count)
system.cpu.commit.numCommittedDist::mean     0.101137                       # Number of insts commited each cycle (Count)
system.cpu.commit.numCommittedDist::stdev     0.593225                       # Number of insts commited each cycle (Count)
system.cpu.commit.numCommittedDist::underflows            0      0.00%      0.00% # Number of insts commited each cycle (Count)
system.cpu.commit.numCommittedDist::0         1914716     94.59%     94.59% # Number of insts commited each cycle (Count)
system.cpu.commit.numCommittedDist::1           75258      3.72%     98.31% # Number of insts commited each cycle (Count)
system.cpu.commit.numCommittedDist::2           13138      0.65%     98.95% # Number of insts commited each cycle (Count)
system.cpu.commit.numCommittedDist::3           11281      0.56%     99.51% # Number of insts commited each cycle (Count)
system.cpu.commit.numCommittedDist::4             527      0.03%     99.54% # Number of insts commited each cycle (Count)
system.cpu.commit.numCommittedDist::5            1365      0.07%     99.61% # Number of insts commited each cycle (Count)
system.cpu.commit.numCommittedDist::6            1190      0.06%     99.66% # Number of insts commited each cycle (Count)
system.cpu.commit.numCommittedDist::7            1128      0.06%     99.72% # Number of insts commited each cycle (Count)
system.cpu.commit.numCommittedDist::8            5673      0.28%    100.00% # Number of insts commited each cycle (Count)
system.cpu.commit.numCommittedDist::overflows            0      0.00%    100.00% # Number of insts commited each cycle (Count)
system.cpu.commit.numCommittedDist::min_value            0                       # Number of insts commited each cycle (Count)
system.cpu.commit.numCommittedDist::max_value            8                       # Number of insts commited each cycle (Count)
system.cpu.commit.numCommittedDist::total      2024276                       # Number of insts commited each cycle (Count)
system.cpu.commit.instsCommitted               139480                       # Number of instructions committed (Count)
system.cpu.commit.opsCommitted                 204730                       # Number of ops (including micro ops) committed (Count)
system.cpu.commit.memRefs                       76918                       # Number of memory references committed (Count)
system.cpu.commit.loads                          1552                       # Number of loads committed (Count)
system.cpu.commit.amos                              0                       # Number of atomic instructions committed (Count)
system.cpu.commit.membars                           0                       # Number of memory barriers committed (Count)
system.cpu.commit.branches                       9935                       # Number of branches committed (Count)
system.cpu.commit.vectorInstructions                0                       # Number of committed Vector instructions. (Count)
system.cpu.commit.floating                     107648                       # Number of committed floating point instructions. (Count)
system.cpu.commit.integer                      179402                       # Number of committed integer instructions. (Count)
system.cpu.commit.functionCalls                   150                       # Number of function calls committed. (Count)
system.cpu.commit.committedInstType_0::No_OpClass          195      0.10%      0.10% # Class of committed instruction (Count)
system.cpu.commit.committedInstType_0::IntAlu        94331     46.08%     46.17% # Class of committed instruction (Count)
system.cpu.commit.committedInstType_0::IntMult            5      0.00%     46.17% # Class of committed instruction (Count)
system.cpu.commit.committedInstType_0::IntDiv           21      0.01%     46.18% # Class of committed instruction (Count)
system.cpu.commit.committedInstType_0::FloatAdd          135      0.07%     46.25% # Class of committed instruction (Count)
system.cpu.commit.committedInstType_0::FloatCmp            0      0.00%     46.25% # Class of committed instruction (Count)
system.cpu.commit.committedInstType_0::FloatCvt            0      0.00%     46.25% # Class of committed instruction (Count)
system.cpu.commit.committedInstType_0::FloatMult            0      0.00%     46.25% # Class of committed instruction (Count)
system.cpu.commit.committedInstType_0::FloatMultAcc            0      0.00%     46.25% # Class of committed instruction (Count)
system.cpu.commit.committedInstType_0::FloatDiv            0      0.00%     46.25% # Class of committed instruction (Count)
system.cpu.commit.committedInstType_0::FloatMisc            0      0.00%     46.25% # Class of committed instruction (Count)
system.cpu.commit.committedInstType_0::FloatSqrt            0      0.00%     46.25% # Class of committed instruction (Count)
system.cpu.commit.committedInstType_0::SimdAdd            0      0.00%     46.25% # Class of committed instruction (Count)
system.cpu.commit.committedInstType_0::SimdAddAcc            0      0.00%     46.25% # Class of committed instruction (Count)
system.cpu.commit.committedInstType_0::SimdAlu        16480      8.05%     54.30% # Class of committed instruction (Count)
system.cpu.commit.committedInstType_0::SimdCmp            0      0.00%     54.30% # Class of committed instruction (Count)
system.cpu.commit.committedInstType_0::SimdCvt           46      0.02%     54.32% # Class of committed instruction (Count)
system.cpu.commit.committedInstType_0::SimdMisc         8407      4.11%     58.43% # Class of committed instruction (Count)
system.cpu.commit.committedInstType_0::SimdMult            0      0.00%     58.43% # Class of committed instruction (Count)
system.cpu.commit.committedInstType_0::SimdMultAcc            0      0.00%     58.43% # Class of committed instruction (Count)
system.cpu.commit.committedInstType_0::SimdShift            0      0.00%     58.43% # Class of committed instruction (Count)
system.cpu.commit.committedInstType_0::SimdShiftAcc            0      0.00%     58.43% # Class of committed instruction (Count)
system.cpu.commit.committedInstType_0::SimdDiv            0      0.00%     58.43% # Class of committed instruction (Count)
system.cpu.commit.committedInstType_0::SimdSqrt            0      0.00%     58.43% # Class of committed instruction (Count)
system.cpu.commit.committedInstType_0::SimdFloatAdd            0      0.00%     58.43% # Class of committed instruction (Count)
system.cpu.commit.committedInstType_0::SimdFloatAlu            0      0.00%     58.43% # Class of committed instruction (Count)
system.cpu.commit.committedInstType_0::SimdFloatCmp            0      0.00%     58.43% # Class of committed instruction (Count)
system.cpu.commit.committedInstType_0::SimdFloatCvt         8192      4.00%     62.43% # Class of committed instruction (Count)
system.cpu.commit.committedInstType_0::SimdFloatDiv            0      0.00%     62.43% # Class of committed instruction (Count)
system.cpu.commit.committedInstType_0::SimdFloatMisc            0      0.00%     62.43% # Class of committed instruction (Count)
system.cpu.commit.committedInstType_0::SimdFloatMult            0      0.00%     62.43% # Class of committed instruction (Count)
system.cpu.commit.committedInstType_0::SimdFloatMultAcc            0      0.00%     62.43% # Class of committed instruction (Count)
system.cpu.commit.committedInstType_0::SimdFloatSqrt            0      0.00%     62.43% # Class of committed instruction (Count)
system.cpu.commit.committedInstType_0::SimdReduceAdd            0      0.00%     62.43% # Class of committed instruction (Count)
system.cpu.commit.committedInstType_0::SimdReduceAlu            0      0.00%     62.43% # Class of committed instruction (Count)
system.cpu.commit.committedInstType_0::SimdReduceCmp            0      0.00%     62.43% # Class of committed instruction (Count)
system.cpu.commit.committedInstType_0::SimdFloatReduceAdd            0      0.00%     62.43% # Class of committed instruction (Count)
system.cpu.commit.committedInstType_0::SimdFloatReduceCmp            0      0.00%     62.43% # Class of committed instruction (Count)
system.cpu.commit.committedInstType_0::SimdAes            0      0.00%     62.43% # Class of committed instruction (Count)
system.cpu.commit.committedInstType_0::SimdAesMix            0      0.00%     62.43% # Class of committed instruction (Count)
system.cpu.commit.committedInstType_0::SimdSha1Hash            0      0.00%     62.43% # Class of committed instruction (Count)
system.cpu.commit.committedInstType_0::SimdSha1Hash2            0      0.00%     62.43% # Class of committed instruction (Count)
system.cpu.commit.committedInstType_0::SimdSha256Hash            0      0.00%     62.43% # Class of committed instruction (Count)
system.cpu.commit.committedInstType_0::SimdSha256Hash2            0      0.00%     62.43% # Class of committed instruction (Count)
system.cpu.commit.committedInstType_0::SimdShaSigma2            0      0.00%     62.43% # Class of committed instruction (Count)
system.cpu.commit.committedInstType_0::SimdShaSigma3            0      0.00%     62.43% # Class of committed instruction (Count)
system.cpu.commit.committedInstType_0::SimdPredAlu            0      0.00%     62.43% # Class of committed instruction (Count)
system.cpu.commit.committedInstType_0::MemRead         1498      0.73%     63.16% # Class of committed instruction (Count)
system.cpu.commit.committedInstType_0::MemWrite         1171      0.57%     63.73% # Class of committed instruction (Count)
system.cpu.commit.committedInstType_0::FloatMemRead           54      0.03%     63.76% # Class of committed instruction (Count)
system.cpu.commit.committedInstType_0::FloatMemWrite        74195     36.24%    100.00% # Class of committed instruction (Count)
system.cpu.commit.committedInstType_0::IprAccess            0      0.00%    100.00% # Class of committed instruction (Count)
system.cpu.commit.committedInstType_0::InstPrefetch            0      0.00%    100.00% # Class of committed instruction (Count)
system.cpu.commit.committedInstType_0::total       204730                       # Class of committed instruction (Count)
system.cpu.commit.commitEligibleSamples          5673                       # number cycles where commit BW limit reached (Cycle)
system.cpu.dcache.demandHits::cpu.data           3690                       # number of demand (read+write) hits (Count)
system.cpu.dcache.demandHits::total              3690                       # number of demand (read+write) hits (Count)
system.cpu.dcache.overallHits::cpu.data          3690                       # number of overall hits (Count)
system.cpu.dcache.overallHits::total             3690                       # number of overall hits (Count)
system.cpu.dcache.demandMisses::cpu.data        74106                       # number of demand (read+write) misses (Count)
system.cpu.dcache.demandMisses::total           74106                       # number of demand (read+write) misses (Count)
system.cpu.dcache.overallMisses::cpu.data        74106                       # number of overall misses (Count)
system.cpu.dcache.overallMisses::total          74106                       # number of overall misses (Count)
system.cpu.dcache.demandMissLatency::cpu.data   2034218000                       # number of demand (read+write) miss ticks (Tick)
system.cpu.dcache.demandMissLatency::total   2034218000                       # number of demand (read+write) miss ticks (Tick)
system.cpu.dcache.overallMissLatency::cpu.data   2034218000                       # number of overall miss ticks (Tick)
system.cpu.dcache.overallMissLatency::total   2034218000                       # number of overall miss ticks (Tick)
system.cpu.dcache.demandAccesses::cpu.data        77796                       # number of demand (read+write) accesses (Count)
system.cpu.dcache.demandAccesses::total         77796                       # number of demand (read+write) accesses (Count)
system.cpu.dcache.overallAccesses::cpu.data        77796                       # number of overall (read+write) accesses (Count)
system.cpu.dcache.overallAccesses::total        77796                       # number of overall (read+write) accesses (Count)
system.cpu.dcache.demandMissRate::cpu.data     0.952568                       # miss rate for demand accesses (Ratio)
system.cpu.dcache.demandMissRate::total      0.952568                       # miss rate for demand accesses (Ratio)
system.cpu.dcache.overallMissRate::cpu.data     0.952568                       # miss rate for overall accesses (Ratio)
system.cpu.dcache.overallMissRate::total     0.952568                       # miss rate for overall accesses (Ratio)
system.cpu.dcache.demandAvgMissLatency::cpu.data 27450.112002                       # average overall miss latency ((Cycle/Count))
system.cpu.dcache.demandAvgMissLatency::total 27450.112002                       # average overall miss latency ((Cycle/Count))
system.cpu.dcache.overallAvgMissLatency::cpu.data 27450.112002                       # average overall miss latency ((Cycle/Count))
system.cpu.dcache.overallAvgMissLatency::total 27450.112002                       # average overall miss latency ((Cycle/Count))
system.cpu.dcache.blockedCycles::no_mshrs          352                       # number of cycles access was blocked (Cycle)
system.cpu.dcache.blockedCycles::no_targets            0                       # number of cycles access was blocked (Cycle)
system.cpu.dcache.blockedCauses::no_mshrs           13                       # number of times access was blocked (Count)
system.cpu.dcache.blockedCauses::no_targets            0                       # number of times access was blocked (Count)
system.cpu.dcache.avgBlocked::no_mshrs      27.076923                       # average number of cycles each access was blocked ((Cycle/Count))
system.cpu.dcache.avgBlocked::no_targets          nan                       # average number of cycles each access was blocked ((Cycle/Count))
system.cpu.dcache.writebacks::writebacks        73714                       # number of writebacks (Count)
system.cpu.dcache.writebacks::total             73714                       # number of writebacks (Count)
system.cpu.dcache.demandMshrHits::cpu.data          141                       # number of demand (read+write) MSHR hits (Count)
system.cpu.dcache.demandMshrHits::total           141                       # number of demand (read+write) MSHR hits (Count)
system.cpu.dcache.overallMshrHits::cpu.data          141                       # number of overall MSHR hits (Count)
system.cpu.dcache.overallMshrHits::total          141                       # number of overall MSHR hits (Count)
system.cpu.dcache.demandMshrMisses::cpu.data        73965                       # number of demand (read+write) MSHR misses (Count)
system.cpu.dcache.demandMshrMisses::total        73965                       # number of demand (read+write) MSHR misses (Count)
system.cpu.dcache.overallMshrMisses::cpu.data        73965                       # number of overall MSHR misses (Count)
system.cpu.dcache.overallMshrMisses::total        73965                       # number of overall MSHR misses (Count)
system.cpu.dcache.demandMshrMissLatency::cpu.data   1875193000                       # number of demand (read+write) MSHR miss ticks (Tick)
system.cpu.dcache.demandMshrMissLatency::total   1875193000                       # number of demand (read+write) MSHR miss ticks (Tick)
system.cpu.dcache.overallMshrMissLatency::cpu.data   1875193000                       # number of overall MSHR miss ticks (Tick)
system.cpu.dcache.overallMshrMissLatency::total   1875193000                       # number of overall MSHR miss ticks (Tick)
system.cpu.dcache.demandMshrMissRate::cpu.data     0.950756                       # mshr miss ratio for demand accesses (Ratio)
system.cpu.dcache.demandMshrMissRate::total     0.950756                       # mshr miss ratio for demand accesses (Ratio)
system.cpu.dcache.overallMshrMissRate::cpu.data     0.950756                       # mshr miss ratio for overall accesses (Ratio)
system.cpu.dcache.overallMshrMissRate::total     0.950756                       # mshr miss ratio for overall accesses (Ratio)
system.cpu.dcache.demandAvgMshrMissLatency::cpu.data 25352.436963                       # average overall mshr miss latency ((Cycle/Count))
system.cpu.dcache.demandAvgMshrMissLatency::total 25352.436963                       # average overall mshr miss latency ((Cycle/Count))
system.cpu.dcache.overallAvgMshrMissLatency::cpu.data 25352.436963                       # average overall mshr miss latency ((Cycle/Count))
system.cpu.dcache.overallAvgMshrMissLatency::total 25352.436963                       # average overall mshr miss latency ((Cycle/Count))
system.cpu.dcache.replacements                  73714                       # number of replacements (Count)
system.cpu.dcache.ReadReq.hits::cpu.data         2167                       # number of ReadReq hits (Count)
system.cpu.dcache.ReadReq.hits::total            2167                       # number of ReadReq hits (Count)
system.cpu.dcache.ReadReq.misses::cpu.data          262                       # number of ReadReq misses (Count)
system.cpu.dcache.ReadReq.misses::total           262                       # number of ReadReq misses (Count)
system.cpu.dcache.ReadReq.missLatency::cpu.data     24300000                       # number of ReadReq miss ticks (Tick)
system.cpu.dcache.ReadReq.missLatency::total     24300000                       # number of ReadReq miss ticks (Tick)
system.cpu.dcache.ReadReq.accesses::cpu.data         2429                       # number of ReadReq accesses(hits+misses) (Count)
system.cpu.dcache.ReadReq.accesses::total         2429                       # number of ReadReq accesses(hits+misses) (Count)
system.cpu.dcache.ReadReq.missRate::cpu.data     0.107863                       # miss rate for ReadReq accesses (Ratio)
system.cpu.dcache.ReadReq.missRate::total     0.107863                       # miss rate for ReadReq accesses (Ratio)
system.cpu.dcache.ReadReq.avgMissLatency::cpu.data 92748.091603                       # average ReadReq miss latency ((Tick/Count))
system.cpu.dcache.ReadReq.avgMissLatency::total 92748.091603                       # average ReadReq miss latency ((Tick/Count))
system.cpu.dcache.ReadReq.mshrHits::cpu.data          140                       # number of ReadReq MSHR hits (Count)
system.cpu.dcache.ReadReq.mshrHits::total          140                       # number of ReadReq MSHR hits (Count)
system.cpu.dcache.ReadReq.mshrMisses::cpu.data          122                       # number of ReadReq MSHR misses (Count)
system.cpu.dcache.ReadReq.mshrMisses::total          122                       # number of ReadReq MSHR misses (Count)
system.cpu.dcache.ReadReq.mshrMissLatency::cpu.data     13035000                       # number of ReadReq MSHR miss ticks (Tick)
system.cpu.dcache.ReadReq.mshrMissLatency::total     13035000                       # number of ReadReq MSHR miss ticks (Tick)
system.cpu.dcache.ReadReq.mshrMissRate::cpu.data     0.050226                       # mshr miss rate for ReadReq accesses (Ratio)
system.cpu.dcache.ReadReq.mshrMissRate::total     0.050226                       # mshr miss rate for ReadReq accesses (Ratio)
system.cpu.dcache.ReadReq.avgMshrMissLatency::cpu.data 106844.262295                       # average ReadReq mshr miss latency ((Tick/Count))
system.cpu.dcache.ReadReq.avgMshrMissLatency::total 106844.262295                       # average ReadReq mshr miss latency ((Tick/Count))
system.cpu.dcache.WriteReq.hits::cpu.data         1523                       # number of WriteReq hits (Count)
system.cpu.dcache.WriteReq.hits::total           1523                       # number of WriteReq hits (Count)
system.cpu.dcache.WriteReq.misses::cpu.data        73844                       # number of WriteReq misses (Count)
system.cpu.dcache.WriteReq.misses::total        73844                       # number of WriteReq misses (Count)
system.cpu.dcache.WriteReq.missLatency::cpu.data   2009918000                       # number of WriteReq miss ticks (Tick)
system.cpu.dcache.WriteReq.missLatency::total   2009918000                       # number of WriteReq miss ticks (Tick)
system.cpu.dcache.WriteReq.accesses::cpu.data        75367                       # number of WriteReq accesses(hits+misses) (Count)
system.cpu.dcache.WriteReq.accesses::total        75367                       # number of WriteReq accesses(hits+misses) (Count)
system.cpu.dcache.WriteReq.missRate::cpu.data     0.979792                       # miss rate for WriteReq accesses (Ratio)
system.cpu.dcache.WriteReq.missRate::total     0.979792                       # miss rate for WriteReq accesses (Ratio)
system.cpu.dcache.WriteReq.avgMissLatency::cpu.data 27218.433454                       # average WriteReq miss latency ((Tick/Count))
system.cpu.dcache.WriteReq.avgMissLatency::total 27218.433454                       # average WriteReq miss latency ((Tick/Count))
system.cpu.dcache.WriteReq.mshrHits::cpu.data            1                       # number of WriteReq MSHR hits (Count)
system.cpu.dcache.WriteReq.mshrHits::total            1                       # number of WriteReq MSHR hits (Count)
system.cpu.dcache.WriteReq.mshrMisses::cpu.data        73843                       # number of WriteReq MSHR misses (Count)
system.cpu.dcache.WriteReq.mshrMisses::total        73843                       # number of WriteReq MSHR misses (Count)
system.cpu.dcache.WriteReq.mshrMissLatency::cpu.data   1862158000                       # number of WriteReq MSHR miss ticks (Tick)
system.cpu.dcache.WriteReq.mshrMissLatency::total   1862158000                       # number of WriteReq MSHR miss ticks (Tick)
system.cpu.dcache.WriteReq.mshrMissRate::cpu.data     0.979779                       # mshr miss rate for WriteReq accesses (Ratio)
system.cpu.dcache.WriteReq.mshrMissRate::total     0.979779                       # mshr miss rate for WriteReq accesses (Ratio)
system.cpu.dcache.WriteReq.avgMshrMissLatency::cpu.data 25217.799927                       # average WriteReq mshr miss latency ((Tick/Count))
system.cpu.dcache.WriteReq.avgMshrMissLatency::total 25217.799927                       # average WriteReq mshr miss latency ((Tick/Count))
system.cpu.dcache.power_state.pwrStateResidencyTicks::UNDEFINED   2048543000                       # Cumulative time (in ticks) in various power states (Tick)
system.cpu.dcache.tags.tagsInUse           230.454197                       # Average ticks per tags in use ((Tick/Count))
system.cpu.dcache.tags.totalRefs                77655                       # Total number of references to valid blocks. (Count)
system.cpu.dcache.tags.sampledRefs              73965                       # Sample count of references to valid blocks. (Count)
system.cpu.dcache.tags.avgRefs               1.049888                       # Average number of references to valid blocks. ((Count/Count))
system.cpu.dcache.tags.warmupTick              222000                       # The tick when the warmup percentage was hit. (Tick)
system.cpu.dcache.tags.occupancies::cpu.data   230.454197                       # Average occupied blocks per tick, per requestor ((Count/Tick))
system.cpu.dcache.tags.avgOccs::cpu.data     0.225053                       # Average percentage of cache occupancy ((Ratio/Tick))
system.cpu.dcache.tags.avgOccs::total        0.225053                       # Average percentage of cache occupancy ((Ratio/Tick))
system.cpu.dcache.tags.occupanciesTaskId::1024          251                       # Occupied blocks per task id (Count)
system.cpu.dcache.tags.ageTaskId_1024::0           22                       # Occupied blocks per task id, per block age (Count)
system.cpu.dcache.tags.ageTaskId_1024::1           12                       # Occupied blocks per task id, per block age (Count)
system.cpu.dcache.tags.ageTaskId_1024::3          217                       # Occupied blocks per task id, per block age (Count)
system.cpu.dcache.tags.ratioOccsTaskId::1024     0.245117                       # Ratio of occupied blocks and all blocks, per task id (Ratio)
system.cpu.dcache.tags.tagAccesses             229557                       # Number of tag accesses (Count)
system.cpu.dcache.tags.dataAccesses            229557                       # Number of data accesses (Count)
system.cpu.dcache.tags.power_state.pwrStateResidencyTicks::UNDEFINED   2048543000                       # Cumulative time (in ticks) in various power states (Tick)
system.cpu.decode.idleCycles                    23890                       # Number of cycles decode is idle (Cycle)
system.cpu.decode.blockedCycles               1973121                       # Number of cycles decode is blocked (Cycle)
system.cpu.decode.runCycles                      4621                       # Number of cycles decode is running (Cycle)
system.cpu.decode.unblockCycles                 24033                       # Number of cycles decode is unblocking (Cycle)
system.cpu.decode.squashCycles                    599                       # Number of cycles decode is squashing (Cycle)
system.cpu.decode.branchResolved                 9496                       # Number of times decode resolved a branch (Count)
system.cpu.decode.branchMispred                   230                       # Number of times decode detected a branch misprediction (Count)
system.cpu.decode.decodedInsts                 220923                       # Number of instructions handled by decode (Count)
system.cpu.decode.squashedInsts                  1166                       # Number of squashed instructions handled by decode (Count)
system.cpu.fetch.icacheStallCycles              32321                       # Number of cycles fetch is stalled on an Icache miss (Cycle)
system.cpu.fetch.insts                         150302                       # Number of instructions fetch has processed (Count)
system.cpu.fetch.branches                       12221                       # Number of branches that fetch encountered (Count)
system.cpu.fetch.predictedBranches               9628                       # Number of branches that fetch has predicted taken (Count)
system.cpu.fetch.cycles                       1992225                       # Number of cycles fetch has run and was not squashing or blocked (Cycle)
system.cpu.fetch.squashCycles                    1638                       # Number of cycles fetch has spent squashing (Cycle)
system.cpu.fetch.miscStallCycles                  128                       # Number of cycles fetch has spent waiting on interrupts, or bad addresses, or out of MSHRs (Cycle)
system.cpu.fetch.pendingTrapStallCycles           756                       # Number of stall cycles due to pending traps (Cycle)
system.cpu.fetch.pendingQuiesceStallCycles            4                       # Number of stall cycles due to pending quiesce instructions (Cycle)
system.cpu.fetch.icacheWaitRetryStallCycles           11                       # Number of stall cycles due to full MSHR (Cycle)
system.cpu.fetch.cacheLines                     18870                       # Number of cache lines fetched (Count)
system.cpu.fetch.icacheSquashes                   355                       # Number of outstanding Icache misses that were squashed (Count)
system.cpu.fetch.nisnDist::samples            2026264                       # Number of instructions fetched each cycle (Total) (Count)
system.cpu.fetch.nisnDist::mean              0.110942                       # Number of instructions fetched each cycle (Total) (Count)
system.cpu.fetch.nisnDist::stdev             0.848279                       # Number of instructions fetched each cycle (Total) (Count)
system.cpu.fetch.nisnDist::underflows               0      0.00%      0.00% # Number of instructions fetched each cycle (Total) (Count)
system.cpu.fetch.nisnDist::0                  1982720     97.85%     97.85% # Number of instructions fetched each cycle (Total) (Count)
system.cpu.fetch.nisnDist::1                     7427      0.37%     98.22% # Number of instructions fetched each cycle (Total) (Count)
system.cpu.fetch.nisnDist::2                     3283      0.16%     98.38% # Number of instructions fetched each cycle (Total) (Count)
system.cpu.fetch.nisnDist::3                     3413      0.17%     98.55% # Number of instructions fetched each cycle (Total) (Count)
system.cpu.fetch.nisnDist::4                     3637      0.18%     98.73% # Number of instructions fetched each cycle (Total) (Count)
system.cpu.fetch.nisnDist::5                     3411      0.17%     98.90% # Number of instructions fetched each cycle (Total) (Count)
system.cpu.fetch.nisnDist::6                     3346      0.17%     99.06% # Number of instructions fetched each cycle (Total) (Count)
system.cpu.fetch.nisnDist::7                     3329      0.16%     99.23% # Number of instructions fetched each cycle (Total) (Count)
system.cpu.fetch.nisnDist::8                    15698      0.77%    100.00% # Number of instructions fetched each cycle (Total) (Count)
system.cpu.fetch.nisnDist::overflows                0      0.00%    100.00% # Number of instructions fetched each cycle (Total) (Count)
system.cpu.fetch.nisnDist::min_value                0                       # Number of instructions fetched each cycle (Total) (Count)
system.cpu.fetch.nisnDist::max_value                8                       # Number of instructions fetched each cycle (Total) (Count)
system.cpu.fetch.nisnDist::total              2026264                       # Number of instructions fetched each cycle (Total) (Count)
system.cpu.fetch.branchRate                  0.005966                       # Number of branch fetches per cycle (Ratio)
system.cpu.fetch.rate                        0.073370                       # Number of inst fetches per cycle ((Count/Cycle))
system.cpu.icache.demandHits::cpu.inst          18239                       # number of demand (read+write) hits (Count)
system.cpu.icache.demandHits::total             18239                       # number of demand (read+write) hits (Count)
system.cpu.icache.overallHits::cpu.inst         18239                       # number of overall hits (Count)
system.cpu.icache.overallHits::total            18239                       # number of overall hits (Count)
system.cpu.icache.demandMisses::cpu.inst          631                       # number of demand (read+write) misses (Count)
system.cpu.icache.demandMisses::total             631                       # number of demand (read+write) misses (Count)
system.cpu.icache.overallMisses::cpu.inst          631                       # number of overall misses (Count)
system.cpu.icache.overallMisses::total            631                       # number of overall misses (Count)
system.cpu.icache.demandMissLatency::cpu.inst     61582000                       # number of demand (read+write) miss ticks (Tick)
system.cpu.icache.demandMissLatency::total     61582000                       # number of demand (read+write) miss ticks (Tick)
system.cpu.icache.overallMissLatency::cpu.inst     61582000                       # number of overall miss ticks (Tick)
system.cpu.icache.overallMissLatency::total     61582000                       # number of overall miss ticks (Tick)
system.cpu.icache.demandAccesses::cpu.inst        18870                       # number of demand (read+write) accesses (Count)
system.cpu.icache.demandAccesses::total         18870                       # number of demand (read+write) accesses (Count)
system.cpu.icache.overallAccesses::cpu.inst        18870                       # number of overall (read+write) accesses (Count)
system.cpu.icache.overallAccesses::total        18870                       # number of overall (read+write) accesses (Count)
system.cpu.icache.demandMissRate::cpu.inst     0.033439                       # miss rate for demand accesses (Ratio)
system.cpu.icache.demandMissRate::total      0.033439                       # miss rate for demand accesses (Ratio)
system.cpu.icache.overallMissRate::cpu.inst     0.033439                       # miss rate for overall accesses (Ratio)
system.cpu.icache.overallMissRate::total     0.033439                       # miss rate for overall accesses (Ratio)
system.cpu.icache.demandAvgMissLatency::cpu.inst 97594.294770                       # average overall miss latency ((Cycle/Count))
system.cpu.icache.demandAvgMissLatency::total 97594.294770                       # average overall miss latency ((Cycle/Count))
system.cpu.icache.overallAvgMissLatency::cpu.inst 97594.294770                       # average overall miss latency ((Cycle/Count))
system.cpu.icache.overallAvgMissLatency::total 97594.294770                       # average overall miss latency ((Cycle/Count))
system.cpu.icache.blockedCycles::no_mshrs           72                       # number of cycles access was blocked (Cycle)
system.cpu.icache.blockedCycles::no_targets            0                       # number of cycles access was blocked (Cycle)
system.cpu.icache.blockedCauses::no_mshrs            3                       # number of times access was blocked (Count)
system.cpu.icache.blockedCauses::no_targets            0                       # number of times access was blocked (Count)
system.cpu.icache.avgBlocked::no_mshrs             24                       # average number of cycles each access was blocked ((Cycle/Count))
system.cpu.icache.avgBlocked::no_targets          nan                       # average number of cycles each access was blocked ((Cycle/Count))
system.cpu.icache.demandMshrHits::cpu.inst          149                       # number of demand (read+write) MSHR hits (Count)
system.cpu.icache.demandMshrHits::total           149                       # number of demand (read+write) MSHR hits (Count)
system.cpu.icache.overallMshrHits::cpu.inst          149                       # number of overall MSHR hits (Count)
system.cpu.icache.overallMshrHits::total          149                       # number of overall MSHR hits (Count)
system.cpu.icache.demandMshrMisses::cpu.inst          482                       # number of demand (read+write) MSHR misses (Count)
system.cpu.icache.demandMshrMisses::total          482                       # number of demand (read+write) MSHR misses (Count)
system.cpu.icache.overallMshrMisses::cpu.inst          482                       # number of overall MSHR misses (Count)
system.cpu.icache.overallMshrMisses::total          482                       # number of overall MSHR misses (Count)
system.cpu.icache.demandMshrMissLatency::cpu.inst     49050000                       # number of demand (read+write) MSHR miss ticks (Tick)
system.cpu.icache.demandMshrMissLatency::total     49050000                       # number of demand (read+write) MSHR miss ticks (Tick)
system.cpu.icache.overallMshrMissLatency::cpu.inst     49050000                       # number of overall MSHR miss ticks (Tick)
system.cpu.icache.overallMshrMissLatency::total     49050000                       # number of overall MSHR miss ticks (Tick)
system.cpu.icache.demandMshrMissRate::cpu.inst     0.025543                       # mshr miss ratio for demand accesses (Ratio)
system.cpu.icache.demandMshrMissRate::total     0.025543                       # mshr miss ratio for demand accesses (Ratio)
system.cpu.icache.overallMshrMissRate::cpu.inst     0.025543                       # mshr miss ratio for overall accesses (Ratio)
system.cpu.icache.overallMshrMissRate::total     0.025543                       # mshr miss ratio for overall accesses (Ratio)
system.cpu.icache.demandAvgMshrMissLatency::cpu.inst 101763.485477                       # average overall mshr miss latency ((Cycle/Count))
system.cpu.icache.demandAvgMshrMissLatency::total 101763.485477                       # average overall mshr miss latency ((Cycle/Count))
system.cpu.icache.overallAvgMshrMissLatency::cpu.inst 101763.485477                       # average overall mshr miss latency ((Cycle/Count))
system.cpu.icache.overallAvgMshrMissLatency::total 101763.485477                       # average overall mshr miss latency ((Cycle/Count))
system.cpu.icache.replacements                    237                       # number of replacements (Count)
system.cpu.icache.ReadReq.hits::cpu.inst        18239                       # number of ReadReq hits (Count)
system.cpu.icache.ReadReq.hits::total           18239                       # number of ReadReq hits (Count)
system.cpu.icache.ReadReq.misses::cpu.inst          631                       # number of ReadReq misses (Count)
system.cpu.icache.ReadReq.misses::total           631                       # number of ReadReq misses (Count)
system.cpu.icache.ReadReq.missLatency::cpu.inst     61582000                       # number of ReadReq miss ticks (Tick)
system.cpu.icache.ReadReq.missLatency::total     61582000                       # number of ReadReq miss ticks (Tick)
system.cpu.icache.ReadReq.accesses::cpu.inst        18870                       # number of ReadReq accesses(hits+misses) (Count)
system.cpu.icache.ReadReq.accesses::total        18870                       # number of ReadReq accesses(hits+misses) (Count)
system.cpu.icache.ReadReq.missRate::cpu.inst     0.033439                       # miss rate for ReadReq accesses (Ratio)
system.cpu.icache.ReadReq.missRate::total     0.033439                       # miss rate for ReadReq accesses (Ratio)
system.cpu.icache.ReadReq.avgMissLatency::cpu.inst 97594.294770                       # average ReadReq miss latency ((Tick/Count))
system.cpu.icache.ReadReq.avgMissLatency::total 97594.294770                       # average ReadReq miss latency ((Tick/Count))
system.cpu.icache.ReadReq.mshrHits::cpu.inst          149                       # number of ReadReq MSHR hits (Count)
system.cpu.icache.ReadReq.mshrHits::total          149                       # number of ReadReq MSHR hits (Count)
system.cpu.icache.ReadReq.mshrMisses::cpu.inst          482                       # number of ReadReq MSHR misses (Count)
system.cpu.icache.ReadReq.mshrMisses::total          482                       # number of ReadReq MSHR misses (Count)
system.cpu.icache.ReadReq.mshrMissLatency::cpu.inst     49050000                       # number of ReadReq MSHR miss ticks (Tick)
system.cpu.icache.ReadReq.mshrMissLatency::total     49050000                       # number of ReadReq MSHR miss ticks (Tick)
system.cpu.icache.ReadReq.mshrMissRate::cpu.inst     0.025543                       # mshr miss rate for ReadReq accesses (Ratio)
system.cpu.icache.ReadReq.mshrMissRate::total     0.025543                       # mshr miss rate for ReadReq accesses (Ratio)
system.cpu.icache.ReadReq.avgMshrMissLatency::cpu.inst 101763.485477                       # average ReadReq mshr miss latency ((Tick/Count))
system.cpu.icache.ReadReq.avgMshrMissLatency::total 101763.485477                       # average ReadReq mshr miss latency ((Tick/Count))
system.cpu.icache.power_state.pwrStateResidencyTicks::UNDEFINED   2048543000                       # Cumulative time (in ticks) in various power states (Tick)
system.cpu.icache.tags.tagsInUse           240.945190                       # Average ticks per tags in use ((Tick/Count))
system.cpu.icache.tags.totalRefs                18721                       # Total number of references to valid blocks. (Count)
system.cpu.icache.tags.sampledRefs                482                       # Sample count of references to valid blocks. (Count)
system.cpu.icache.tags.avgRefs              38.840249                       # Average number of references to valid blocks. ((Count/Count))
system.cpu.icache.tags.warmupTick              107000                       # The tick when the warmup percentage was hit. (Tick)
system.cpu.icache.tags.occupancies::cpu.inst   240.945190                       # Average occupied blocks per tick, per requestor ((Count/Tick))
system.cpu.icache.tags.avgOccs::cpu.inst     0.941192                       # Average percentage of cache occupancy ((Ratio/Tick))
system.cpu.icache.tags.avgOccs::total        0.941192                       # Average percentage of cache occupancy ((Ratio/Tick))
system.cpu.icache.tags.occupanciesTaskId::1024          245                       # Occupied blocks per task id (Count)
system.cpu.icache.tags.ageTaskId_1024::0           37                       # Occupied blocks per task id, per block age (Count)
system.cpu.icache.tags.ageTaskId_1024::3          208                       # Occupied blocks per task id, per block age (Count)
system.cpu.icache.tags.ratioOccsTaskId::1024     0.957031                       # Ratio of occupied blocks and all blocks, per task id (Ratio)
system.cpu.icache.tags.tagAccesses              38222                       # Number of tag accesses (Count)
system.cpu.icache.tags.dataAccesses             38222                       # Number of data accesses (Count)
system.cpu.icache.tags.power_state.pwrStateResidencyTicks::UNDEFINED   2048543000                       # Cumulative time (in ticks) in various power states (Tick)
system.cpu.interrupts.clk_domain.clock          16000                       # Clock period in ticks (Tick)
system.cpu.lsq0.forwLoads                         194                       # Number of loads that had data forwarded from stores (Count)
system.cpu.lsq0.squashedLoads                    1578                       # Number of loads squashed (Count)
system.cpu.lsq0.ignoredResponses                    3                       # Number of memory responses ignored because the instruction is squashed (Count)
system.cpu.lsq0.memOrderViolation                  11                       # Number of memory ordering violations (Count)
system.cpu.lsq0.squashedStores                    954                       # Number of stores squashed (Count)
system.cpu.lsq0.rescheduledLoads                    1                       # Number of loads that were rescheduled (Count)
system.cpu.lsq0.blockedByCache                      9                       # Number of times an access to memory failed due to the cache being blocked (Count)
system.cpu.lsq0.loadToUse::samples               1552                       # Distribution of cycle latency between the first time a load is issued and its completion (Unspecified)
system.cpu.lsq0.loadToUse::mean             11.893041                       # Distribution of cycle latency between the first time a load is issued and its completion (Unspecified)
system.cpu.lsq0.loadToUse::stdev            30.164178                       # Distribution of cycle latency between the first time a load is issued and its completion (Unspecified)
system.cpu.lsq0.loadToUse::0-9                   1414     91.11%     91.11% # Distribution of cycle latency between the first time a load is issued and its completion (Unspecified)
system.cpu.lsq0.loadToUse::10-19                    9      0.58%     91.69% # Distribution of cycle latency between the first time a load is issued and its completion (Unspecified)
system.cpu.lsq0.loadToUse::20-29                    1      0.06%     91.75% # Distribution of cycle latency between the first time a load is issued and its completion (Unspecified)
system.cpu.lsq0.loadToUse::30-39                    2      0.13%     91.88% # Distribution of cycle latency between the first time a load is issued and its completion (Unspecified)
system.cpu.lsq0.loadToUse::40-49                    2      0.13%     92.01% # Distribution of cycle latency between the first time a load is issued and its completion (Unspecified)
system.cpu.lsq0.loadToUse::50-59                    2      0.13%     92.14% # Distribution of cycle latency between the first time a load is issued and its completion (Unspecified)
system.cpu.lsq0.loadToUse::60-69                    1      0.06%     92.20% # Distribution of cycle latency between the first time a load is issued and its completion (Unspecified)
system.cpu.lsq0.loadToUse::70-79                    6      0.39%     92.59% # Distribution of cycle latency between the first time a load is issued and its completion (Unspecified)
system.cpu.lsq0.loadToUse::80-89                    4      0.26%     92.85% # Distribution of cycle latency between the first time a load is issued and its completion (Unspecified)
system.cpu.lsq0.loadToUse::90-99                   33      2.13%     94.97% # Distribution of cycle latency between the first time a load is issued and its completion (Unspecified)
system.cpu.lsq0.loadToUse::100-109                 16      1.03%     96.01% # Distribution of cycle latency between the first time a load is issued and its completion (Unspecified)
system.cpu.lsq0.loadToUse::110-119                 20      1.29%     97.29% # Distribution of cycle latency between the first time a load is issued and its completion (Unspecified)
system.cpu.lsq0.loadToUse::120-129                 33      2.13%     99.42% # Distribution of cycle latency between the first time a load is issued and its completion (Unspecified)
system.cpu.lsq0.loadToUse::130-139                  2      0.13%     99.55% # Distribution of cycle latency between the first time a load is issued and its completion (Unspecified)
system.cpu.lsq0.loadToUse::150-159                  1      0.06%     99.61% # Distribution of cycle latency between the first time a load is issued and its completion (Unspecified)
system.cpu.lsq0.loadToUse::160-169                  1      0.06%     99.68% # Distribution of cycle latency between the first time a load is issued and its completion (Unspecified)
system.cpu.lsq0.loadToUse::200-209                  5      0.32%    100.00% # Distribution of cycle latency between the first time a load is issued and its completion (Unspecified)
system.cpu.lsq0.loadToUse::min_value                2                       # Distribution of cycle latency between the first time a load is issued and its completion (Unspecified)
system.cpu.lsq0.loadToUse::max_value              205                       # Distribution of cycle latency between the first time a load is issued and its completion (Unspecified)
system.cpu.lsq0.loadToUse::total                 1552                       # Distribution of cycle latency between the first time a load is issued and its completion (Unspecified)
system.cpu.mmu.dtb.rdAccesses                    2691                       # TLB accesses on read requests (Count)
system.cpu.mmu.dtb.wrAccesses                   75900                       # TLB accesses on write requests (Count)
system.cpu.mmu.dtb.rdMisses                        76                       # TLB misses on read requests (Count)
system.cpu.mmu.dtb.wrMisses                        33                       # TLB misses on write requests (Count)
system.cpu.mmu.dtb.walker.power_state.pwrStateResidencyTicks::UNDEFINED   2048543000                       # Cumulative time (in ticks) in various power states (Tick)
system.cpu.mmu.itb.rdAccesses                       0                       # TLB accesses on read requests (Count)
system.cpu.mmu.itb.wrAccesses                   19001                       # TLB accesses on write requests (Count)
system.cpu.mmu.itb.rdMisses                         0                       # TLB misses on read requests (Count)
system.cpu.mmu.itb.wrMisses                       173                       # TLB misses on write requests (Count)
system.cpu.mmu.itb.walker.power_state.pwrStateResidencyTicks::UNDEFINED   2048543000                       # Cumulative time (in ticks) in various power states (Tick)
system.cpu.power_state.pwrStateResidencyTicks::ON   2048543000                       # Cumulative time (in ticks) in various power states (Tick)
system.cpu.rename.squashCycles                    599                       # Number of cycles rename is squashing (Cycle)
system.cpu.rename.idleCycles                    31466                       # Number of cycles rename is idle (Cycle)
system.cpu.rename.blockCycles                  784600                       # Number of cycles rename is blocking (Cycle)
system.cpu.rename.serializeStallCycles             35                       # count of cycles rename stalled for serializing inst (Cycle)
system.cpu.rename.runCycles                     17975                       # Number of cycles rename is running (Cycle)
system.cpu.rename.unblockCycles               1191589                       # Number of cycles rename is unblocking (Cycle)
system.cpu.rename.renamedInsts                 219806                       # Number of instructions processed by rename (Count)
system.cpu.rename.ROBFullEvents                    13                       # Number of times rename has blocked due to ROB full (Count)
system.cpu.rename.IQFullEvents                    140                       # Number of times rename has blocked due to IQ full (Count)
[...]
system.mem_ctrl.requestorReadAvgLat::cpu.data     34674.76                       # Per-requestor read average memory access latency ((Tick/Count))
system.mem_ctrl.dram.bytesRead::cpu.inst        30848                       # Number of bytes read from this memory (Byte)
system.mem_ctrl.dram.bytesRead::cpu.data        19776                       # Number of bytes read from this memory (Byte)
system.mem_ctrl.dram.bytesRead::total           50624                       # Number of bytes read from this memory (Byte)
system.mem_ctrl.dram.bytesInstRead::cpu.inst        30848                       # Number of instructions bytes read from this memory (Byte)
system.mem_ctrl.dram.bytesInstRead::total        30848                       # Number of instructions bytes read from this memory (Byte)
system.mem_ctrl.dram.numReads::cpu.inst           482                       # Number of read requests responded to by this memory (Count)
system.mem_ctrl.dram.numReads::cpu.data           309                       # Number of read requests responded to by this memory (Count)
system.mem_ctrl.dram.numReads::total              791                       # Number of read requests responded to by this memory (Count)
system.mem_ctrl.dram.bwRead::cpu.inst        15058507                       # Total read bandwidth from this memory ((Byte/Second))
system.mem_ctrl.dram.bwRead::cpu.data         9653690                       # Total read bandwidth from this memory ((Byte/Second))
system.mem_ctrl.dram.bwRead::total           24712198                       # Total read bandwidth from this memory ((Byte/Second))
system.mem_ctrl.dram.bwInstRead::cpu.inst     15058507                       # Instruction read bandwidth from this memory ((Byte/Second))
system.mem_ctrl.dram.bwInstRead::total       15058507                       # Instruction read bandwidth from this memory ((Byte/Second))
system.mem_ctrl.dram.bwTotal::cpu.inst       15058507                       # Total bandwidth to/from this memory ((Byte/Second))
system.mem_ctrl.dram.bwTotal::cpu.data        9653690                       # Total bandwidth to/from this memory ((Byte/Second))
system.mem_ctrl.dram.bwTotal::total          24712198                       # Total bandwidth to/from this memory ((Byte/Second))
system.mem_ctrl.dram.readBursts                   791                       # Number of DRAM read bursts (Count)
system.mem_ctrl.dram.writeBursts                    0                       # Number of DRAM write bursts (Count)
system.mem_ctrl.dram.perBankRdBursts::0            52                       # Per bank write bursts (Count)
system.mem_ctrl.dram.perBankRdBursts::1            71                       # Per bank write bursts (Count)
system.mem_ctrl.dram.perBankRdBursts::2           113                       # Per bank write bursts (Count)
system.mem_ctrl.dram.perBankRdBursts::3            99                       # Per bank write bursts (Count)
system.mem_ctrl.dram.perBankRdBursts::4            73                       # Per bank write bursts (Count)
system.mem_ctrl.dram.perBankRdBursts::5            11                       # Per bank write bursts (Count)
system.mem_ctrl.dram.perBankRdBursts::6             7                       # Per bank write bursts (Count)
system.mem_ctrl.dram.perBankRdBursts::7             6                       # Per bank write bursts (Count)
system.mem_ctrl.dram.perBankRdBursts::8            34                       # Per bank write bursts (Count)
system.mem_ctrl.dram.perBankRdBursts::9            81                       # Per bank write bursts (Count)
system.mem_ctrl.dram.perBankRdBursts::10           35                       # Per bank write bursts (Count)
system.mem_ctrl.dram.perBankRdBursts::11           22                       # Per bank write bursts (Count)
system.mem_ctrl.dram.perBankRdBursts::12           59                       # Per bank write bursts (Count)
system.mem_ctrl.dram.perBankRdBursts::13           31                       # Per bank write bursts (Count)
system.mem_ctrl.dram.perBankRdBursts::14           48                       # Per bank write bursts (Count)
system.mem_ctrl.dram.perBankRdBursts::15           49                       # Per bank write bursts (Count)
system.mem_ctrl.dram.perBankWrBursts::0             0                       # Per bank write bursts (Count)
system.mem_ctrl.dram.perBankWrBursts::1             0                       # Per bank write bursts (Count)
system.mem_ctrl.dram.perBankWrBursts::2             0                       # Per bank write bursts (Count)
system.mem_ctrl.dram.perBankWrBursts::3             0                       # Per bank write bursts (Count)
system.mem_ctrl.dram.perBankWrBursts::4             0                       # Per bank write bursts (Count)
system.mem_ctrl.dram.perBankWrBursts::5             0                       # Per bank write bursts (Count)
system.mem_ctrl.dram.perBankWrBursts::6             0                       # Per bank write bursts (Count)
system.mem_ctrl.dram.perBankWrBursts::7             0                       # Per bank write bursts (Count)
system.mem_ctrl.dram.perBankWrBursts::8             0                       # Per bank write bursts (Count)
system.mem_ctrl.dram.perBankWrBursts::9             0                       # Per bank write bursts (Count)
system.mem_ctrl.dram.perBankWrBursts::10            0                       # Per bank write bursts (Count)
system.mem_ctrl.dram.perBankWrBursts::11            0                       # Per bank write bursts (Count)
system.mem_ctrl.dram.perBankWrBursts::12            0                       # Per bank write bursts (Count)
system.mem_ctrl.dram.perBankWrBursts::13            0                       # Per bank write bursts (Count)
system.mem_ctrl.dram.perBankWrBursts::14            0                       # Per bank write bursts (Count)
system.mem_ctrl.dram.perBankWrBursts::15            0                       # Per bank write bursts (Count)
system.mem_ctrl.dram.totQLat                  9104750                       # Total ticks spent queuing (Tick)
system.mem_ctrl.dram.totBusLat                3955000                       # Total ticks spent in databus transfers (Tick)
system.mem_ctrl.dram.totMemAccLat            23936000                       # Total ticks spent from burst creation until serviced by the DRAM (Tick)
system.mem_ctrl.dram.avgQLat                 11510.43                       # Average queueing delay per DRAM burst ((Tick/Count))
system.mem_ctrl.dram.avgBusLat                5000.00                       # Average bus latency per DRAM burst ((Tick/Count))
system.mem_ctrl.dram.avgMemAccLat            30260.43                       # Average memory access latency per DRAM burst ((Tick/Count))
system.mem_ctrl.dram.readRowHits                  538                       # Number of row buffer hits during reads (Count)
system.mem_ctrl.dram.writeRowHits                   0                       # Number of row buffer hits during writes (Count)
system.mem_ctrl.dram.readRowHitRate             68.02                       # Row buffer hit rate for reads (Ratio)
system.mem_ctrl.dram.writeRowHitRate              nan                       # Row buffer hit rate for writes (Ratio)
system.mem_ctrl.dram.bytesPerActivate::samples          251                       # Bytes accessed per row activation (Byte)
system.mem_ctrl.dram.bytesPerActivate::mean   200.159363                       # Bytes accessed per row activation (Byte)
system.mem_ctrl.dram.bytesPerActivate::gmean   126.492796                       # Bytes accessed per row activation (Byte)
system.mem_ctrl.dram.bytesPerActivate::stdev   241.167773                       # Bytes accessed per row activation (Byte)
system.mem_ctrl.dram.bytesPerActivate::0-127          134     53.39%     53.39% # Bytes accessed per row activation (Byte)
system.mem_ctrl.dram.bytesPerActivate::128-255           54     21.51%     74.90% # Bytes accessed per row activation (Byte)
system.mem_ctrl.dram.bytesPerActivate::256-383           27     10.76%     85.66% # Bytes accessed per row activation (Byte)
system.mem_ctrl.dram.bytesPerActivate::384-511           10      3.98%     89.64% # Bytes accessed per row activation (Byte)
system.mem_ctrl.dram.bytesPerActivate::512-639            6      2.39%     92.03% # Bytes accessed per row activation (Byte)
system.mem_ctrl.dram.bytesPerActivate::640-767            3      1.20%     93.23% # Bytes accessed per row activation (Byte)
system.mem_ctrl.dram.bytesPerActivate::768-895            4      1.59%     94.82% # Bytes accessed per row activation (Byte)
system.mem_ctrl.dram.bytesPerActivate::896-1023            3      1.20%     96.02% # Bytes accessed per row activation (Byte)
system.mem_ctrl.dram.bytesPerActivate::1024-1151           10      3.98%    100.00% # Bytes accessed per row activation (Byte)
system.mem_ctrl.dram.bytesPerActivate::total          251                       # Bytes accessed per row activation (Byte)
system.mem_ctrl.dram.bytesRead                  50624                       # Total number of bytes read from DRAM (Byte)
system.mem_ctrl.dram.bytesWritten                   0                       # Total number of bytes written to DRAM (Byte)
system.mem_ctrl.dram.avgRdBW                24.712198                       # Average DRAM read bandwidth in MiBytes/s ((Byte/Second))
system.mem_ctrl.dram.avgWrBW                        0                       # Average DRAM write bandwidth in MiBytes/s ((Byte/Second))
system.mem_ctrl.dram.peakBW                  12800.00                       # Theoretical peak bandwidth in MiByte/s ((Byte/Second))
system.mem_ctrl.dram.busUtil                     0.19                       # Data bus utilization in percentage (Ratio)
system.mem_ctrl.dram.busUtilRead                 0.19                       # Data bus utilization in percentage for reads (Ratio)
system.mem_ctrl.dram.busUtilWrite                0.00                       # Data bus utilization in percentage for writes (Ratio)
system.mem_ctrl.dram.pageHitRate                68.02                       # Row buffer hit rate, read and write combined (Ratio)
system.mem_ctrl.dram.power_state.pwrStateResidencyTicks::UNDEFINED   2048543000                       # Cumulative time (in ticks) in various power states (Tick)
system.mem_ctrl.dram.rank0.actEnergy          1071000                       # Energy for activate commands per rank (pJ) (Joule)
system.mem_ctrl.dram.rank0.preEnergy           565455                       # Energy for precharge commands per rank (pJ) (Joule)
system.mem_ctrl.dram.rank0.readEnergy         3084480                       # Energy for read commands per rank (pJ) (Joule)
system.mem_ctrl.dram.rank0.writeEnergy              0                       # Energy for write commands per rank (pJ) (Joule)
system.mem_ctrl.dram.rank0.refreshEnergy 161650320.000000                       # Energy for refresh commands per rank (pJ) (Joule)
system.mem_ctrl.dram.rank0.actBackEnergy     64997670                       # Energy for active background per rank (pJ) (Joule)
system.mem_ctrl.dram.rank0.preBackEnergy    731905920                       # Energy for precharge background per rank (pJ) (Joule)
system.mem_ctrl.dram.rank0.actPowerDownEnergy            0                       # Energy for active power-down per rank (pJ) (Joule)
system.mem_ctrl.dram.rank0.prePowerDownEnergy            0                       # Energy for precharge power-down per rank (pJ) (Joule)
system.mem_ctrl.dram.rank0.selfRefreshEnergy            0                       # Energy for self refresh per rank (pJ) (Joule)
system.mem_ctrl.dram.rank0.totalEnergy      963274845                       # Total energy per rank (pJ) (Joule)
system.mem_ctrl.dram.rank0.averagePower    470.224372                       # Core power per rank (mW) (Watt)
system.mem_ctrl.dram.rank0.totalIdleTime            0                       # Total Idle time Per DRAM Rank (Tick)
system.mem_ctrl.dram.rank0.pwrStateTime::IDLE   1902037750                       # Time in different power states (Tick)
system.mem_ctrl.dram.rank0.pwrStateTime::REF     68380000                       # Time in different power states (Tick)
system.mem_ctrl.dram.rank0.pwrStateTime::SREF            0                       # Time in different power states (Tick)
system.mem_ctrl.dram.rank0.pwrStateTime::PRE_PDN            0                       # Time in different power states (Tick)
system.mem_ctrl.dram.rank0.pwrStateTime::ACT     78125250                       # Time in different power states (Tick)
system.mem_ctrl.dram.rank0.pwrStateTime::ACT_PDN            0                       # Time in different power states (Tick)
system.mem_ctrl.dram.rank1.actEnergy           735420                       # Energy for activate commands per rank (pJ) (Joule)
system.mem_ctrl.dram.rank1.preEnergy           387090                       # Energy for precharge commands per rank (pJ) (Joule)
system.mem_ctrl.dram.rank1.readEnergy         2563260                       # Energy for read commands per rank (pJ) (Joule)
system.mem_ctrl.dram.rank1.writeEnergy              0                       # Energy for write commands per rank (pJ) (Joule)
system.mem_ctrl.dram.rank1.refreshEnergy 161650320.000000                       # Energy for refresh commands per rank (pJ) (Joule)
system.mem_ctrl.dram.rank1.actBackEnergy     63939180                       # Energy for active background per rank (pJ) (Joule)
system.mem_ctrl.dram.rank1.preBackEnergy    732797280                       # Energy for precharge background per rank (pJ) (Joule)
system.mem_ctrl.dram.rank1.actPowerDownEnergy            0                       # Energy for active power-down per rank (pJ) (Joule)
system.mem_ctrl.dram.rank1.prePowerDownEnergy            0                       # Energy for precharge power-down per rank (pJ) (Joule)
system.mem_ctrl.dram.rank1.selfRefreshEnergy            0                       # Energy for self refresh per rank (pJ) (Joule)
system.mem_ctrl.dram.rank1.totalEnergy      962072550                       # Total energy per rank (pJ) (Joule)
system.mem_ctrl.dram.rank1.averagePower    469.637469                       # Core power per rank (mW) (Watt)
system.mem_ctrl.dram.rank1.totalIdleTime            0                       # Total Idle time Per DRAM Rank (Tick)
system.mem_ctrl.dram.rank1.pwrStateTime::IDLE   1904541750                       # Time in different power states (Tick)
system.mem_ctrl.dram.rank1.pwrStateTime::REF     68380000                       # Time in different power states (Tick)
system.mem_ctrl.dram.rank1.pwrStateTime::SREF            0                       # Time in different power states (Tick)
system.mem_ctrl.dram.rank1.pwrStateTime::PRE_PDN            0                       # Time in different power states (Tick)
system.mem_ctrl.dram.rank1.pwrStateTime::ACT     75621250                       # Time in different power states (Tick)
system.mem_ctrl.dram.rank1.pwrStateTime::ACT_PDN            0                       # Time in different power states (Tick)
system.mem_ctrl.power_state.pwrStateResidencyTicks::UNDEFINED   2048543000                       # Cumulative time (in ticks) in various power states (Tick)
system.membus.transDist::ReadResp                 604                       # Transaction distribution (Count)
system.membus.transDist::CleanEvict               237                       # Transaction distribution (Count)
system.membus.transDist::ReadExReq                187                       # Transaction distribution (Count)
system.membus.transDist::ReadExResp               187                       # Transaction distribution (Count)
system.membus.transDist::ReadCleanReq             604                       # Transaction distribution (Count)
system.membus.pktCount_system.l2cache.mem_side_port::system.mem_ctrl.port         1819                       # Packet count per connected requestor and responder (Count)
system.membus.pktCount_system.l2cache.mem_side_port::total         1819                       # Packet count per connected requestor and responder (Count)
system.membus.pktCount::total                    1819                       # Packet count per connected requestor and responder (Count)
system.membus.pktSize_system.l2cache.mem_side_port::system.mem_ctrl.port        50624                       # Cumulative packet size per connected requestor and responder (Byte)
system.membus.pktSize_system.l2cache.mem_side_port::total        50624                       # Cumulative packet size per connected requestor and responder (Byte)
system.membus.pktSize::total                    50624                       # Cumulative packet size per connected requestor and responder (Byte)
system.membus.snoops                                0                       # Total snoops (Count)
system.membus.snoopTraffic                          0                       # Total snoop traffic (Byte)
system.membus.snoopFanout::samples                791                       # Request fanout histogram (Count)
system.membus.snoopFanout::mean                     0                       # Request fanout histogram (Count)
system.membus.snoopFanout::stdev                    0                       # Request fanout histogram (Count)
system.membus.snoopFanout::underflows               0      0.00%      0.00% # Request fanout histogram (Count)
system.membus.snoopFanout::0                      791    100.00%    100.00% # Request fanout histogram (Count)
system.membus.snoopFanout::1                        0      0.00%    100.00% # Request fanout histogram (Count)
system.membus.snoopFanout::overflows                0      0.00%    100.00% # Request fanout histogram (Count)
system.membus.snoopFanout::min_value                0                       # Request fanout histogram (Count)
system.membus.snoopFanout::max_value                0                       # Request fanout histogram (Count)
system.membus.snoopFanout::total                  791                       # Request fanout histogram (Count)
system.membus.power_state.pwrStateResidencyTicks::UNDEFINED   2048543000                       # Cumulative time (in ticks) in various power states (Tick)
system.membus.reqLayer2.occupancy             1028000                       # Layer occupancy (ticks) (Tick)
system.membus.reqLayer2.utilization               0.0                       # Layer utilization (Ratio)
system.membus.respLayer0.occupancy            4232250                       # Layer occupancy (ticks) (Tick)
system.membus.respLayer0.utilization              0.0                       # Layer utilization (Ratio)
system.membus.snoop_filter.totRequests           1028                       # Total number of requests made to the snoop filter. (Count)
system.membus.snoop_filter.hitSingleRequests          237                       # Number of requests hitting in the snoop filter with a single holder of the requested data. (Count)
system.membus.snoop_filter.hitMultiRequests            0                       # Number of requests hitting in the snoop filter with multiple (>1) holders of the requested data. (Count)
system.membus.snoop_filter.totSnoops                0                       # Total number of snoops made to the snoop filter. (Count)
system.membus.snoop_filter.hitSingleSnoops            0                       # Number of snoops hitting in the snoop filter with a single holder of the requested data. (Count)
system.membus.snoop_filter.hitMultiSnoops            0                       # Number of snoops hitting in the snoop filter with multiple (>1) holders of the requested data. (Count)
system.workload.inst.arm                            0                       # number of arm instructions executed (Count)
system.workload.inst.quiesce                        0                       # number of quiesce instructions executed (Count)

---------- End Simulation Statistics   ----------
