
---------- Begin Simulation Statistics ----------
simSeconds                                   0.000430                       # Number of seconds simulated (Second)
simTicks                                    429945000                       # Number of ticks simulated (Tick)
finalTick                                   429945000                       # Number of ticks from beginning of simulation (restored from checkpoints and never reset) (Tick)
simFreq                                  1000000000000                       # The number of ticks per simulated second ((Tick/Second))
hostSeconds                                      1.65                       # Real time elapsed on the host (Second)
hostTickRate                                260483752                       # The number of ticks simulated per host second (ticks/s) ((Tick/Second))
hostMemory                                     645992                       # Number of bytes of host memory used (Byte)
simInsts                                       139480                       # Number of instructions simulated (Count)
simOps                                         204730                       # Number of ops (including micro ops) simulated (Count)
hostInstRate                                    84499                       # Simulator instruction rate (inst/s) ((Count/Second))
hostOpRate                                     124027                       # Simulator op (including micro ops) rate (op/s) ((Count/Second))
system.clk_domain.clock                          1000                       # Clock period in ticks (Tick)
system.clk_domain.voltage_domain.voltage            1                       # Voltage in Volts (Volt)
system.cpu.numCycles                           429946                       # Number of cpu cycles simulated (Cycle)
system.cpu.numWorkItemsStarted                      0                       # Number of work items this cpu started (Count)
system.cpu.numWorkItemsCompleted                    0                       # Number of work items this cpu completed (Count)
system.cpu.instsAdded                          217302                       # Number of instructions added to the IQ (excludes non-spec) (Count)
system.cpu.nonSpecInstsAdded                        1                       # Number of non-speculative instructions added to the IQ (Count)
system.cpu.instsIssued                         214383                       # Number of instructions issued (Count)
system.cpu.squashedInstsIssued                     43                       # Number of squashed instructions issued (Count)
system.cpu.squashedInstsExamined                12559                       # Number of squashed instructions iterated over during squash; mainly for profiling (Count)
system.cpu.squashedOperandsExamined             14331                       # Number of squashed operands that are examined and possibly removed from graph (Count)
system.cpu.squashedNonSpecRemoved                   1                       # Number of squashed non-spec instructions that were removed (Count)
system.cpu.numIssuedDist::samples              408624                       # Number of insts issued each cycle (Count)
system.cpu.numIssuedDist::mean               0.524646                       # Number of insts issued each cycle (Count)
system.cpu.numIssuedDist::stdev              1.235495                       # Number of insts issued each cycle (Count)
system.cpu.numIssuedDist::underflows                0      0.00%      0.00% # Number of insts issued each cycle (Count)
system.cpu.numIssuedDist::0                    300987     73.66%     73.66% # Number of insts issued each cycle (Count)
system.cpu.numIssuedDist::1                     73199     17.91%     91.57% # Number of insts issued each cycle (Count)
system.cpu.numIssuedDist::2                      7467      1.83%     93.40% # Number of insts issued each cycle (Count)
system.cpu.numIssuedDist::3                      6074      1.49%     94.89% # Number of insts issued each cycle (Count)
system.cpu.numIssuedDist::4                      7211      1.76%     96.65% # Number of insts issued each cycle (Count)
system.cpu.numIssuedDist::5                      3987      0.98%     97.63% # Number of insts issued each cycle (Count)
system.cpu.numIssuedDist::6                      8921      2.18%     99.81% # Number of insts issued each cycle (Count)
system.cpu.numIssuedDist::7                       501      0.12%     99.93% # Number of insts issued each cycle (Count)
system.cpu.numIssuedDist::8                       277      0.07%    100.00% # Number of insts issued each cycle (Count)
system.cpu.numIssuedDist::overflows                 0      0.00%    100.00% # Number of insts issued each cycle (Count)
system.cpu.numIssuedDist::min_value                 0                       # Number of insts issued each cycle (Count)
system.cpu.numIssuedDist::max_value                 8                       # Number of insts issued each cycle (Count)
system.cpu.numIssuedDist::total                408624                       # Number of insts issued each cycle (Count)
system.cpu.statFuBusy::No_OpClass                   0      0.00%      0.00% # attempts to use FU when none available (Count)
system.cpu.statFuBusy::IntAlu                     247     75.54%     75.54% # attempts to use FU when none available (Count)
system.cpu.statFuBusy::IntMult                      0      0.00%     75.54% # attempts to use FU when none available (Count)
system.cpu.statFuBusy::IntDiv                       0      0.00%     75.54% # attempts to use FU when none available (Count)
system.cpu.statFuBusy::FloatAdd                     0      0.00%     75.54% # attempts to use FU when none available (Count)
system.cpu.statFuBusy::FloatCmp                     0      0.00%     75.54% # attempts to use FU when none available (Count)
system.cpu.statFuBusy::FloatCvt                     0      0.00%     75.54% # attempts to use FU when none available (Count)
system.cpu.statFuBusy::FloatMult                    0      0.00%     75.54% # attempts to use FU when none available (Count)
system.cpu.statFuBusy::FloatMultAcc                 0      0.00%     75.54% # attempts to use FU when none available (Count)
system.cpu.statFuBusy::FloatDiv                     0      0.00%     75.54% # attempts to use FU when none available (Count)
system.cpu.statFuBusy::FloatMisc                    0      0.00%     75.54% # attempts to use FU when none available (Count)
system.cpu.statFuBusy::FloatSqrt                    0      0.00%     75.54% # attempts to use FU when none available (Count)
system.cpu.statFuBusy::SimdAdd                      0      0.00%     75.54% # attempts to use FU when none available (Count)
system.cpu.statFuBusy::SimdAddAcc                   0      0.00%     75.54% # attempts to use FU when none available (Count)
system.cpu.statFuBusy::SimdAlu                     11      3.36%     78.90% # attempts to use FU when none available (Count)
system.cpu.statFuBusy::SimdCmp                      0      0.00%     78.90% # attempts to use FU when none available (Count)
system.cpu.statFuBusy::SimdCvt                      1      0.31%     79.20% # attempts to use FU when none available (Count)
system.cpu.statFuBusy::SimdMisc                     3      0.92%     80.12% # attempts to use FU when none available (Count)
system.cpu.statFuBusy::SimdMult                     0      0.00%     80.12% # attempts to use FU when none available (Count)
system.cpu.statFuBusy::SimdMultAcc                  0      0.00%     80.12% # attempts to use FU when none available (Count)
system.cpu.statFuBusy::SimdShift                    0      0.00%     80.12% # attempts to use FU when none available (Count)
system.cpu.statFuBusy::SimdShiftAcc                 0      0.00%     80.12% # attempts to use FU when none available (Count)
system.cpu.statFuBusy::SimdDiv                      0      0.00%     80.12% # attempts to use FU when none available (Count)
system.cpu.statFuBusy::SimdSqrt                     0      0.00%     80.12% # attempts to use FU when none available (Count)
system.cpu.statFuBusy::SimdFloatAdd                 0      0.00%     80.12% # attempts to use FU when none available (Count)
system.cpu.statFuBusy::SimdFloatAlu                 0      0.00%     80.12% # attempts to use FU when none available (Count)
system.cpu.statFuBusy::SimdFloatCmp                 0      0.00%     80.12% # attempts to use FU when none available (Count)
system.cpu.statFuBusy::SimdFloatCvt                 0      0.00%     80.12% # attempts to use FU when none available (Count)
system.cpu.statFuBusy::SimdFloatDiv                 0      0.00%     80.12% # attempts to use FU when none available (Count)
system.cpu.statFuBusy::SimdFloatMisc                0      0.00%     80.12% # attempts to use FU when none available (Count)
system.cpu.statFuBusy::SimdFloatMult                0      0.00%     80.12% # attempts to use FU when none available (Count)
system.cpu.statFuBusy::SimdFloatMultAcc             0      0.00%     80.12% # attempts to use FU when none available (Count)
system.cpu.statFuBusy::SimdFloatSqrt                0      0.00%     80.12% # attempts to use FU when none available (Count)
system.cpu.statFuBusy::SimdReduceAdd                0      0.00%     80.12% # attempts to use FU when none available (Count)
system.cpu.statFuBusy::SimdReduceAlu                0      0.00%     80.12% # attempts to use FU when none available (Count)
system.cpu.statFuBusy::SimdReduceCmp                0      0.00%     80.12% # attempts to use FU when none available (Count)
system.cpu.statFuBusy::SimdFloatReduceAdd            0      0.00%     80.12% # attempts to use FU when none available (Count)
system.cpu.statFuBusy::SimdFloatReduceCmp            0      0.00%     80.12% # attempts to use FU when none available (Count)
system.cpu.statFuBusy::SimdAes                      0      0.00%     80.12% # attempts to use FU when none available (Count)
system.cpu.statFuBusy::SimdAesMix                   0      0.00%     80.12% # attempts to use FU when none available (Count)
system.cpu.statFuBusy::SimdSha1Hash                 0      0.00%     80.12% # attempts to use FU when none available (Count)
system.cpu.statFuBusy::SimdSha1Hash2                0      0.00%     80.12% # attempts to use FU when none available (Count)
system.cpu.statFuBusy::SimdSha256Hash               0      0.00%     80.12% # attempts to use FU when none available (Count)
system.cpu.statFuBusy::SimdSha256Hash2              0      0.00%     80.12% # attempts to use FU when none available (Count)
system.cpu.statFuBusy::SimdShaSigma2                0      0.00%     80.12% # attempts to use FU when none available (Count)
system.cpu.statFuBusy::SimdShaSigma3                0      0.00%     80.12% # attempts to use FU when none available (Count)
system.cpu.statFuBusy::SimdPredAlu                  0      0.00%     80.12% # attempts to use FU when none available (Count)
system.cpu.statFuBusy::MemRead                     27      8.26%     88.38% # attempts to use FU when none available (Count)
system.cpu.statFuBusy::MemWrite                    18      5.50%     93.88% # attempts to use FU when none available (Count)
system.cpu.statFuBusy::FloatMemRead                 6      1.83%     95.72% # attempts to use FU when none available (Count)
system.cpu.statFuBusy::FloatMemWrite               14      4.28%    100.00% # attempts to use FU when none available (Count)
system.cpu.statFuBusy::IprAccess                    0      0.00%    100.00% # attempts to use FU when none available (Count)
system.cpu.statFuBusy::InstPrefetch                 0      0.00%    100.00% # attempts to use FU when none available (Count)
system.cpu.statIssuedInstType_0::No_OpClass          649      0.30%      0.30% # Number of instructions issued per FU type, per thread (Count)
system.cpu.statIssuedInstType_0::IntAlu        101488     47.34%     47.64% # Number of instructions issued per FU type, per thread (Count)
system.cpu.statIssuedInstType_0::IntMult            6      0.00%     47.65% # Number of instructions issued per FU type, per thread (Count)
system.cpu.statIssuedInstType_0::IntDiv            29      0.01%     47.66% # Number of instructions issued per FU type, per thread (Count)
system.cpu.statIssuedInstType_0::FloatAdd          136      0.06%     47.72% # Number of instructions issued per FU type, per thread (Count)
system.cpu.statIssuedInstType_0::FloatCmp            0      0.00%     47.72% # Number of instructions issued per FU type, per thread (Count)
system.cpu.statIssuedInstType_0::FloatCvt            0      0.00%     47.72% # Number of instructions issued per FU type, per thread (Count)
system.cpu.statIssuedInstType_0::FloatMult            0      0.00%     47.72% # Number of instructions issued per FU type, per thread (Count)
system.cpu.statIssuedInstType_0::FloatMultAcc            0      0.00%     47.72% # Number of instructions issued per FU type, per thread (Count)
system.cpu.statIssuedInstType_0::FloatDiv            0      0.00%     47.72% # Number of instructions issued per FU type, per thread (Count)
system.cpu.statIssuedInstType_0::FloatMisc            0      0.00%     47.72% # Number of instructions issued per FU type, per thread (Count)
system.cpu.statIssuedInstType_0::FloatSqrt            0      0.00%     47.72% # Number of instructions issued per FU type, per thread (Count)
system.cpu.statIssuedInstType_0::SimdAdd            0      0.00%     47.72% # Number of instructions issued per FU type, per thread (Count)
system.cpu.statIssuedInstType_0::SimdAddAcc            0      0.00%     47.72% # Number of instructions issued per FU type, per thread (Count)
system.cpu.statIssuedInstType_0::SimdAlu        16550      7.72%     55.44% # Number of instructions issued per FU type, per thread (Count)
system.cpu.statIssuedInstType_0::SimdCmp            0      0.00%     55.44% # Number of instructions issued per FU type, per thread (Count)
system.cpu.statIssuedInstType_0::SimdCvt           48      0.02%     55.46% # Number of instructions issued per FU type, per thread (Count)
system.cpu.statIssuedInstType_0::SimdMisc         8411      3.92%     59.39% # Number of instructions issued per FU type, per thread (Count)
system.cpu.statIssuedInstType_0::SimdMult            0      0.00%     59.39% # Number of instructions issued per FU type, per thread (Count)
system.cpu.statIssuedInstType_0::SimdMultAcc            0      0.00%     59.39% # Number of instructions issued per FU type, per thread (Count)
system.cpu.statIssuedInstType_0::SimdShift            0      0.00%     59.39% # Number of instructions issued per FU type, per thread (Count)
system.cpu.statIssuedInstType_0::SimdShiftAcc            0      0.00%     59.39% # Number of instructions issued per FU type, per thread (Count)
system.cpu.statIssuedInstType_0::SimdDiv            0      0.00%     59.39% # Number of instructions issued per FU type, per thread (Count)
system.cpu.statIssuedInstType_0::SimdSqrt            0      0.00%     59.39% # Number of instructions issued per FU type, per thread (Count)
system.cpu.statIssuedInstType_0::SimdFloatAdd            0      0.00%     59.39% # Number of instructions issued per FU type, per thread (Count)
system.cpu.statIssuedInstType_0::SimdFloatAlu            0      0.00%     59.39% # Number of instructions issued per FU type, per thread (Count)
system.cpu.statIssuedInstType_0::SimdFloatCmp            0      0.00%     59.39% # Number of instructions issued per FU type, per thread (Count)
system.cpu.statIssuedInstType_0::SimdFloatCvt         8193      3.82%     63.21% # Number of instructions issued per FU type, per thread (Count)
system.cpu.statIssuedInstType_0::SimdFloatDiv            0      0.00%     63.21% # Number of instructions issued per FU type, per thread (Count)
system.cpu.statIssuedInstType_0::SimdFloatMisc            0      0.00%     63.21% # Number of instructions issued per FU type, per thread (Count)
system.cpu.statIssuedInstType_0::SimdFloatMult            0      0.00%     63.21% # Number of instructions issued per FU type, per thread (Count)
system.cpu.statIssuedInstType_0::SimdFloatMultAcc            0      0.00%     63.21% # Number of instructions issued per FU type, per thread (Count)
system.cpu.statIssuedInstType_0::SimdFloatSqrt            0      0.00%     63.21% # Number of instructions issued per FU type, per thread (Count)
system.cpu.statIssuedInstType_0::SimdReduceAdd            0      0.00%     63.21% # Number of instructions issued per FU type, per thread (Count)
system.cpu.statIssuedInstType_0::SimdReduceAlu            0      0.00%     63.21% # Number of instructions issued per FU type, per thread (Count)
system.cpu.statIssuedInstType_0::SimdReduceCmp            0      0.00%     63.21% # Number of instructions issued per FU type, per thread (Count)
system.cpu.statIssuedInstType_0::SimdFloatReduceAdd            0      0.00%     63.21% # Number of instructions issued per FU type, per thread (Count)
system.cpu.statIssuedInstType_0::SimdFloatReduceCmp            0      0.00%     63.21% # Number of instructions issued per FU type, per thread (Count)
system.cpu.statIssuedInstType_0::SimdAes            0      0.00%     63.21% # Number of instructions issued per FU type, per thread (Count)
system.cpu.statIssuedInstType_0::SimdAesMix            0      0.00%     63.21% # Number of instructions issued per FU type, per thread (Count)
system.cpu.statIssuedInstType_0::SimdSha1Hash            0      0.00%     63.21% # Number of instructions issued per FU type, per thread (Count)
system.cpu.statIssuedInstType_0::SimdSha1Hash2            0      0.00%     63.21% # Number of instructions issued per FU type, per thread (Count)
system.cpu.statIssuedInstType_0::SimdSha256Hash            0      0.00%     63.21% # Number of instructions issued per FU type, per thread (Count)
system.cpu.statIssuedInstType_0::SimdSha256Hash2            0      0.00%     63.21% # Number of instructions issued per FU type, per thread (Count)
system.cpu.statIssuedInstType_0::SimdShaSigma2            0      0.00%     63.21% # Number of instructions issued per FU type, per thread (Count)
system.cpu.statIssuedInstType_0::SimdShaSigma3            0      0.00%     63.21% # Number of instructions issued per FU type, per thread (Count)
system.cpu.statIssuedInstType_0::SimdPredAlu            0      0.00%     63.21% # Number of instructions issued per FU type, per thread (Count)
system.cpu.statIssuedInstType_0::MemRead         2797      1.30%     64.51% # Number of instructions issued per FU type, per thread (Count)
system.cpu.statIssuedInstType_0::MemWrite         1730      0.81%     65.32% # Number of instructions issued per FU type, per thread (Count)
system.cpu.statIssuedInstType_0::FloatMemRead           88      0.04%     65.36% # Number of instructions issued per FU type, per thread (Count)
system.cpu.statIssuedInstType_0::FloatMemWrite        74258     34.64%    100.00% # Number of instructions issued per FU type, per thread (Count)
system.cpu.statIssuedInstType_0::IprAccess            0      0.00%    100.00% # Number of instructions issued per FU type, per thread (Count)
system.cpu.statIssuedInstType_0::InstPrefetch            0      0.00%    100.00% # Number of instructions issued per FU type, per thread (Count)
system.cpu.statIssuedInstType_0::total         214383                       # Number of instructions issued per FU type, per thread (Count)
system.cpu.issueRate                         0.498628                       # Inst issue rate ((Count/Cycle))
system.cpu.fuBusy                                 327                       # FU busy when requested (Count)
system.cpu.fuBusyRate                        0.001525                       # FU busy rate (busy events/executed inst) ((Count/Count))
system.cpu.intInstQueueReads                   622070                       # Number of integer instruction queue reads (Count)
system.cpu.intInstQueueWrites                  121807                       # Number of integer instruction queue writes (Count)
system.cpu.intInstQueueWakeupAccesses          104973                       # Number of integer instruction queue wakeup accesses (Count)
system.cpu.fpInstQueueReads                    215684                       # Number of floating instruction queue reads (Count)
system.cpu.fpInstQueueWrites                   108064                       # Number of floating instruction queue writes (Count)
system.cpu.fpInstQueueWakeupAccesses           107786                       # Number of floating instruction queue wakeup accesses (Count)
system.cpu.vecInstQueueReads                        0                       # Number of vector instruction queue reads (Count)
system.cpu.vecInstQueueWrites                       0                       # Number of vector instruction queue writes (Count)
system.cpu.vecInstQueueWakeupAccesses               0                       # Number of vector instruction queue wakeup accesses (Count)
system.cpu.intAluAccesses                      106202                       # Number of integer alu accesses (Count)
system.cpu.fpAluAccesses                       107859                       # Number of floating point alu accesses (Count)
system.cpu.vecAluAccesses                           0                       # Number of vector alu accesses (Count)
system.cpu.idleCycles                               0                       # Number of cycles IEW is idle (Cycle)
system.cpu.squashCycles                           602                       # Number of cycles IEW is squashing (Cycle)
system.cpu.blockCycles                           1820                       # Number of cycles IEW is blocking (Cycle)
system.cpu.unblockCycles                         5108                       # Number of cycles IEW is unblocking (Cycle)
system.cpu.dispatchedInsts                     217303                       # Number of instructions dispatched to IQ (Count)
system.cpu.dispSquashedInsts                      122                       # Number of squashed instructions skipped by dispatch (Count)
system.cpu.dispLoadInsts                         3120                       # Number of dispatched load instructions (Count)
system.cpu.dispStoreInsts                       76324                       # Number of dispatched store instructions (Count)
system.cpu.dispNonSpecInsts                         1                       # Number of dispatched non-speculative instructions (Count)
system.cpu.iqFullEvents                             8                       # Number of times the IQ has become full, causing a stall (Count)
system.cpu.lsqFullEvents                         5097                       # Number of times the LSQ has become full, causing a stall (Count)
system.cpu.memOrderViolationEvents                 10                       # Number of memory order violations (Count)
system.cpu.predictedTakenIncorrect                 55                       # Number of branches that were predicted taken incorrectly (Count)
system.cpu.predictedNotTakenIncorrect             642                       # Number of branches that were predicted not taken incorrectly (Count)
system.cpu.branchMispredicts                      697                       # Number of branch mispredicts detected at execute (Count)
system.cpu.numInsts                            213504                       # Number of executed instructions (Count)
system.cpu.numLoadInsts                          2728                       # Number of load instructions executed (Count)
system.cpu.numSquashedInsts                       873                       # Number of squashed instructions skipped in execute (Count)
system.cpu.numSwp                                   0                       # Number of swp insts executed (Count)
system.cpu.numNop                                   0                       # Number of nop insts executed (Count)
system.cpu.numRefs                              78633                       # Number of memory reference insts executed (Count)
system.cpu.numBranches                          10613                       # Number of branches executed (Count)
system.cpu.numStoreInsts                        75905                       # Number of stores executed (Count)
system.cpu.numRate                           0.496583                       # Inst execution rate ((Count/Cycle))
system.cpu.instsToCommit                       213158                       # Cumulative count of insts sent to commit (Count)
system.cpu.writebackCount                      212759                       # Cumulative count of insts written-back (Count)
system.cpu.producerInst                         87264                       # Number of instructions producing a value (Count)
system.cpu.consumerInst                        109898                       # Number of instructions consuming a value (Count)
system.cpu.wbRate                            0.494851                       # Insts written-back per cycle ((Count/Cycle))
system.cpu.wbFanout                          0.794045                       # Average fanout of values written-back ((Count/Count))
system.cpu.timesIdled                             309                       # Number of times that the entire CPU went into an idle state and unscheduled itself (Count)
system.cpu.idleCycles                           21322                       # Total number of cycles that the CPU has spent unscheduled due to idling (Cycle)
system.cpu.committedInsts                      139480                       # Number of Instructions Simulated (Count)
system.cpu.committedOps                        204730                       # Number of Ops (including micro ops) Simulated (Count)
system.cpu.cpi                               3.082492                       # CPI: Cycles Per Instruction ((Cycle/Count))
system.cpu.totalCpi                          3.082492                       # CPI: Total CPI of All Threads ((Cycle/Count))
system.cpu.ipc                               0.324413                       # IPC: Instructions Per Cycle ((Count/Cycle))
system.cpu.totalIpc                          0.324413                       # IPC: Total IPC of All Threads ((Count/Cycle))
system.cpu.intRegfileReads                     279474                       # Number of integer regfile reads (Count)
system.cpu.intRegfileWrites                     92476                       # Number of integer regfile writes (Count)
system.cpu.fpRegfileReads                      132623                       # Number of floating regfile reads (Count)
system.cpu.fpRegfileWrites                      33494                       # Number of floating regfile writes (Count)
system.cpu.ccRegfileReads                       60142                       # number of cc regfile reads (Count)
system.cpu.ccRegfileWrites                      56399                       # number of cc regfile writes (Count)
system.cpu.miscRegfileReads                    100877                       # number of misc regfile reads (Count)
system.cpu.MemDepUnit__0.insertedLoads           3120                       # Number of loads inserted to the mem dependence unit. (Count)
system.cpu.MemDepUnit__0.insertedStores         76324                       # Number of stores inserted to the mem dependence unit. (Count)
system.cpu.MemDepUnit__0.conflictingLoads           24                       # Number of conflicting loads. (Count)
system.cpu.MemDepUnit__0.conflictingStores            4                       # Number of conflicting stores. (Count)
system.cpu.MemDepUnit__1.insertedLoads              0                       # Number of loads inserted to the mem dependence unit. (Count)
system.cpu.MemDepUnit__1.insertedStores             0                       # Number of stores inserted to the mem dependence unit. (Count)
system.cpu.MemDepUnit__1.conflictingLoads            0                       # Number of conflicting loads. (Count)
system.cpu.MemDepUnit__1.conflictingStores            0                       # Number of conflicting stores. (Count)
system.cpu.MemDepUnit__2.insertedLoads              0                       # Number of loads inserted to the mem dependence unit. (Count)
system.cpu.MemDepUnit__2.insertedStores             0                       # Number of stores inserted to the mem dependence unit. (Count)
system.cpu.MemDepUnit__2.conflictingLoads            0                       # Number of conflicting loads. (Count)
system.cpu.MemDepUnit__2.conflictingStores            0                       # Number of conflicting stores. (Count)
system.cpu.MemDepUnit__3.insertedLoads              0                       # Number of loads inserted to the mem dependence unit. (Count)
system.cpu.MemDepUnit__3.insertedStores             0                       # Number of stores inserted to the mem dependence unit. (Count)
system.cpu.MemDepUnit__3.conflictingLoads            0                       # Number of conflicting loads. (Count)
system.cpu.MemDepUnit__3.conflictingStores            0                       # Number of conflicting stores. (Count)
system.cpu.branchPred.lookups                   12208                       # Number of BP lookups (Count)
system.cpu.branchPred.condPredicted             11022                       # Number of conditional branches predicted (Count)
system.cpu.branchPred.condIncorrect               683                       # Number of conditional branches incorrect (Count)
system.cpu.branchPred.BTBLookups                10049                       # Number of BTB lookups (Count)
system.cpu.branchPred.BTBHits                    9351                       # Number of BTB hits (Count)
system.cpu.branchPred.BTBHitRatio            0.930540                       # BTB Hit Ratio (Ratio)
system.cpu.branchPred.RASUsed                     266                       # Number of times the RAS was used to get a target. (Count)
system.cpu.branchPred.RASIncorrect                  0                       # Number of incorrect RAS predictions. (Count)
system.cpu.branchPred.indirectLookups             315                       # Number of indirect predictor lookups. (Count)
system.cpu.branchPred.indirectHits                 15                       # Number of indirect target hits. (Count)
system.cpu.branchPred.indirectMisses              300                       # Number of indirect misses. (Count)
system.cpu.branchPred.indirectMispredicted           92                       # Number of mispredicted indirect branches. (Count)
system.cpu.commit.commitSquashedInsts           12426                       # The number of squashed insts skipped by commit (Count)
system.cpu.commit.branchMispredicts               581                       # The number of times a branch was mispredicted (Count)
system.cpu.commit.numCommittedDist::samples       406620                       # Number of insts commited each cycle (Count)
system.cpu.commit.numCommittedDist::mean     0.503492                       # Number of insts commited each cycle (Count)
system.cpu.commit.numCommittedDist::stdev     1.250857                       # Number of insts commited each cycle (Count)
system.cpu.commit.numCommittedDist::underflows            0      0.00%      0.00% # Number of insts commited each cycle (Count)
system.cpu.commit.numCommittedDist::0          299151     73.57%     73.57% # Number of insts commited each cycle (Count)
system.cpu.commit.numCommittedDist::1           72092     17.73%     91.30% # Number of insts commited each cycle (Count)
system.cpu.commit.numCommittedDist::2           13195      3.25%     94.54% # Number of insts commited each cycle (Count)
system.cpu.commit.numCommittedDist::3           12302      3.03%     97.57% # Number of insts commited each cycle (Count)
system.cpu.commit.numCommittedDist::4             518      0.13%     97.70% # Number of insts commited each cycle (Count)
system.cpu.commit.numCommittedDist::5            1376      0.34%     98.04% # Number of insts commited each cycle (Count)
system.cpu.commit.numCommittedDist::6            1191      0.29%     98.33% # Number of insts commited each cycle (Count)
system.cpu.commit.numCommittedDist::7            1116      0.27%     98.60% # Number of insts commited each cycle (Count)
system.cpu.commit.numCommittedDist::8            5679      1.40%    100.00% # Number of insts commited each cycle (Count)
system.cpu.commit.numCommittedDist::overflows            0      0.00%    100.00% # Number of insts commited each cycle (Count)
system.cpu.commit.numCommittedDist::min_value            0                       # Number of insts commited each cycle (Count)
system.cpu.commit.numCommittedDist::max_value            8                       # Number of insts commited each cycle (Count)
system.cpu.commit.numCommittedDist::total       406620                       # Number of insts commited each cycle (Count)
system.cpu.commit.instsCommitted               139480                       # Number of instructions committed (Count)
system.cpu.commit.opsCommitted                 204730                       # Number of ops (including micro ops) committed (Count)
system.cpu.commit.memRefs                       76918                       # Number of memory references committed (Count)
system.cpu.commit.loads                          1552                       # Number of loads committed (Count)
system.cpu.commit.amos                              0                       # Number of atomic instructions committed (Count)
system.cpu.commit.membars                           0                       # Number of memory barriers committed (Count)
system.cpu.commit.branches                       9935                       # Number of branches committed (Count)
system.cpu.commit.vectorInstructions                0                       # Number of committed Vector instructions. (Count)
system.cpu.commit.floating                     107648                       # Number of committed floating point instructions. (Count)
system.cpu.commit.integer                      179402                       # Number of committed integer instructions. (Count)
system.cpu.commit.functionCalls                   150                       # Number of function calls committed. (Count)
system.cpu.commit.committedInstType_0::No_OpClass          195      0.10%      0.10% # Class of committed instruction (Count)
system.cpu.commit.committedInstType_0::IntAlu        94331     46.08%     46.17% # Class of committed instruction (Count)
system.cpu.commit.committedInstType_0::IntMult            5      0.00%     46.17% # Class of committed instruction (Count)
system.cpu.commit.committedInstType_0::IntDiv           21      0.01%     46.18% # Class of committed instruction (Count)
system.cpu.commit.committedInstType_0::FloatAdd          135      0.07%     46.25% # Class of committed instruction (Count)
system.cpu.commit.committedInstType_0::FloatCmp            0      0.00%     46.25% # Class of committed instruction (Count)
system.cpu.commit.committedInstType_0::FloatCvt            0      0.00%     46.25% # Class of committed instruction (Count)
system.cpu.commit.committedInstType_0::FloatMult            0      0.00%     46.25% # Class of committed instruction (Count)
system.cpu.commit.committedInstType_0::FloatMultAcc            0      0.00%     46.25% # Class of committed instruction (Count)
system.cpu.commit.committedInstType_0::FloatDiv            0      0.00%     46.25% # Class of committed instruction (Count)
system.cpu.commit.committedInstType_0::FloatMisc            0      0.00%     46.25% # Class of committed instruction (Count)
system.cpu.commit.committedInstType_0::FloatSqrt            0      0.00%     46.25% # Class of committed instruction (Count)
system.cpu.commit.committedInstType_0::SimdAdd            0      0.00%     46.25% # Class of committed instruction (Count)
system.cpu.commit.committedInstType_0::SimdAddAcc            0      0.00%     46.25% # Class of committed instruction (Count)
system.cpu.commit.committedInstType_0::SimdAlu        16480      8.05%     54.30% # Class of committed instruction (Count)
system.cpu.commit.committedInstType_0::SimdCmp            0      0.00%     54.30% # Class of committed instruction (Count)
system.cpu.commit.committedInstType_0::SimdCvt           46      0.02%     54.32% # Class of committed instruction (Count)
system.cpu.commit.committedInstType_0::SimdMisc         8407      4.11%     58.43% # Class of committed instruction (Count)
system.cpu.commit.committedInstType_0::SimdMult            0      0.00%     58.43% # Class of committed instruction (Count)
system.cpu.commit.committedInstType_0::SimdMultAcc            0      0.00%     58.43% # Class of committed instruction (Count)
system.cpu.commit.committedInstType_0::SimdShift            0      0.00%     58.43% # Class of committed instruction (Count)
system.cpu.commit.committedInstType_0::SimdShiftAcc            0      0.00%     58.43% # Class of committed instruction (Count)
system.cpu.commit.committedInstType_0::SimdDiv            0      0.00%     58.43% # Class of committed instruction (Count)
system.cpu.commit.committedInstType_0::SimdSqrt            0      0.00%     58.43% # Class of committed instruction (Count)
system.cpu.commit.committedInstType_0::SimdFloatAdd            0      0.00%     58.43% # Class of committed instruction (Count)
system.cpu.commit.committedInstType_0::SimdFloatAlu            0      0.00%     58.43% # Class of committed instruction (Count)
system.cpu.commit.committedInstType_0::SimdFloatCmp            0      0.00%     58.43% # Class of committed instruction (Count)
system.cpu.commit.committedInstType_0::SimdFloatCvt         8192      4.00%     62.43% # Class of committed instruction (Count)
system.cpu.commit.committedInstType_0::SimdFloatDiv            0      0.00%     62.43% # Class of committed instruction (Count)
system.cpu.commit.committedInstType_0::SimdFloatMisc            0      0.00%     62.43% # Class of committed instruction (Count)
system.cpu.commit.committedInstType_0::SimdFloatMult            0      0.00%     62.43% # Class of committed instruction (Count)
system.cpu.commit.committedInstType_0::SimdFloatMultAcc            0      0.00%     62.43% # Class of committed instruction (Count)
system.cpu.commit.committedInstType_0::SimdFloatSqrt            0      0.00%     62.43% # Class of committed instruction (Count)
system.cpu.commit.committedInstType_0::SimdReduceAdd            0      0.00%     62.43% # Class of committed instruction (Count)
system.cpu.commit.committedInstType_0::SimdReduceAlu            0      0.00%     62.43% # Class of committed instruction (Count)
system.cpu.commit.committedInstType_0::SimdReduceCmp            0      0.00%     62.43% # Class of committed instruction (Count)
system.cpu.commit.committedInstType_0::SimdFloatReduceAdd            0      0.00%     62.43% # Class of committed instruction (Count)
system.cpu.commit.committedInstType_0::SimdFloatReduceCmp            0      0.00%     62.43% # Class of committed instruction (Count)
system.cpu.commit.committedInstType_0::SimdAes            0      0.00%     62.43% # Class of committed instruction (Count)
system.cpu.commit.committedInstType_0::SimdAesMix            0      0.00%     62.43% # Class of committed instruction (Count)
system.cpu.commit.committedInstType_0::SimdSha1Hash            0      0.00%     62.43% # Class of committed instruction (Count)
system.cpu.commit.committedInstType_0::SimdSha1Hash2            0      0.00%     62.43% # Class of committed instruction (Count)
system.cpu.commit.committedInstType_0::SimdSha256Hash            0      0.00%     62.43% # Class of committed instruction (Count)
system.cpu.commit.committedInstType_0::SimdSha256Hash2            0      0.00%     62.43% # Class of committed instruction (Count)
system.cpu.commit.committedInstType_0::SimdShaSigma2            0      0.00%     62.43% # Class of committed instruction (Count)
system.cpu.commit.committedInstType_0::SimdShaSigma3            0      0.00%     62.43% # Class of committed instruction (Count)
system.cpu.commit.committedInstType_0::SimdPredAlu            0      0.00%     62.43% # Class of committed instruction (Count)
system.cpu.commit.committedInstType_0::MemRead         1498      0.73%     63.16% # Class of committed instruction (Count)
system.cpu.commit.committedInstType_0::MemWrite         1171      0.57%     63.73% # Class of committed instruction (Count)
system.cpu.commit.committedInstType_0::FloatMemRead           54      0.03%     63.76% # Class of committed instruction (Count)
system.cpu.commit.committedInstType_0::FloatMemWrite        74195     36.24%    100.00% # Class of committed instruction (Count)
system.cpu.commit.committedInstType_0::IprAccess            0      0.00%    100.00% # Class of committed instruction (Count)
system.cpu.commit.committedInstType_0::InstPrefetch            0      0.00%    100.00% # Class of committed instruction (Count)
system.cpu.commit.committedInstType_0::total       204730                       # Class of committed instruction (Count)
system.cpu.commit.commitEligibleSamples          5679                       # number cycles where commit BW limit reached (Cycle)
system.cpu.dcache.demandHits::cpu.data           3606                       # number of demand (read+write) hits (Count)
system.cpu.dcache.demandHits::total              3606                       # number of demand (read+write) hits (Count)
system.cpu.dcache.overallHits::cpu.data          3606                       # number of overall hits (Count)
system.cpu.dcache.overallHits::total             3606                       # number of overall hits (Count)
system.cpu.dcache.demandMisses::cpu.data        74191                       # number of demand (read+write) misses (Count)
system.cpu.dcache.demandMisses::total           74191                       # number of demand (read+write) misses (Count)
system.cpu.dcache.overallMisses::cpu.data        74191                       # number of overall misses (Count)
system.cpu.dcache.overallMisses::total          74191                       # number of overall misses (Count)
system.cpu.dcache.demandMissLatency::cpu.data    419217000                       # number of demand (read+write) miss ticks (Tick)
system.cpu.dcache.demandMissLatency::total    419217000                       # number of demand (read+write) miss ticks (Tick)
system.cpu.dcache.overallMissLatency::cpu.data    419217000                       # number of overall miss ticks (Tick)
system.cpu.dcache.overallMissLatency::total    419217000                       # number of overall miss ticks (Tick)
system.cpu.dcache.demandAccesses::cpu.data        77797                       # number of demand (read+write) accesses (Count)
system.cpu.dcache.demandAccesses::total         77797                       # number of demand (read+write) accesses (Count)
system.cpu.dcache.overallAccesses::cpu.data        77797                       # number of overall (read+write) accesses (Count)
system.cpu.dcache.overallAccesses::total        77797                       # number of overall (read+write) accesses (Count)
system.cpu.dcache.demandMissRate::cpu.data     0.953649                       # miss rate for demand accesses (Ratio)
system.cpu.dcache.demandMissRate::total      0.953649                       # miss rate for demand accesses (Ratio)
system.cpu.dcache.overallMissRate::cpu.data     0.953649                       # miss rate for overall accesses (Ratio)
system.cpu.dcache.overallMissRate::total     0.953649                       # miss rate for overall accesses (Ratio)
system.cpu.dcache.demandAvgMissLatency::cpu.data  5650.510170                       # average overall miss latency ((Cycle/Count))
system.cpu.dcache.demandAvgMissLatency::total  5650.510170                       # average overall miss latency ((Cycle/Count))
system.cpu.dcache.overallAvgMissLatency::cpu.data  5650.510170                       # average overall miss latency ((Cycle/Count))
system.cpu.dcache.overallAvgMissLatency::total  5650.510170                       # average overall miss latency ((Cycle/Count))
system.cpu.dcache.blockedCycles::no_mshrs          378                       # number of cycles access was blocked (Cycle)
system.cpu.dcache.blockedCycles::no_targets            0                       # number of cycles access was blocked (Cycle)
system.cpu.dcache.blockedCauses::no_mshrs           18                       # number of times access was blocked (Count)
system.cpu.dcache.blockedCauses::no_targets            0                       # number of times access was blocked (Count)
system.cpu.dcache.avgBlocked::no_mshrs             21                       # average number of cycles each access was blocked ((Cycle/Count))
system.cpu.dcache.avgBlocked::no_targets          nan                       # average number of cycles each access was blocked ((Cycle/Count))
system.cpu.dcache.writebacks::writebacks        73883                       # number of writebacks (Count)
system.cpu.dcache.writebacks::total             73883                       # number of writebacks (Count)
system.cpu.dcache.demandMshrHits::cpu.data          153                       # number of demand (read+write) MSHR hits (Count)
system.cpu.dcache.demandMshrHits::total           153                       # number of demand (read+write) MSHR hits (Count)
system.cpu.dcache.overallMshrHits::cpu.data          153                       # number of overall MSHR hits (Count)
system.cpu.dcache.overallMshrHits::total          153                       # number of overall MSHR hits (Count)
system.cpu.dcache.demandMshrMisses::cpu.data        74038                       # number of demand (read+write) MSHR misses (Count)
system.cpu.dcache.demandMshrMisses::total        74038                       # number of demand (read+write) MSHR misses (Count)
system.cpu.dcache.overallMshrMisses::cpu.data        74038                       # number of overall MSHR misses (Count)
system.cpu.dcache.overallMshrMisses::total        74038                       # number of overall MSHR misses (Count)
system.cpu.dcache.demandMshrMissLatency::cpu.data    258961005                       # number of demand (read+write) MSHR miss ticks (Tick)
system.cpu.dcache.demandMshrMissLatency::total    258961005                       # number of demand (read+write) MSHR miss ticks (Tick)
system.cpu.dcache.overallMshrMissLatency::cpu.data    258961005                       # number of overall MSHR miss ticks (Tick)
system.cpu.dcache.overallMshrMissLatency::total    258961005                       # number of overall MSHR miss ticks (Tick)
system.cpu.dcache.demandMshrMissRate::cpu.data     0.951682                       # mshr miss ratio for demand accesses (Ratio)
system.cpu.dcache.demandMshrMissRate::total     0.951682                       # mshr miss ratio for demand accesses (Ratio)
system.cpu.dcache.overallMshrMissRate::cpu.data     0.951682                       # mshr miss ratio for overall accesses (Ratio)
system.cpu.dcache.overallMshrMissRate::total     0.951682                       # mshr miss ratio for overall accesses (Ratio)
system.cpu.dcache.demandAvgMshrMissLatency::cpu.data  3497.676936                       # average overall mshr miss latency ((Cycle/Count))
system.cpu.dcache.demandAvgMshrMissLatency::total  3497.676936                       # average overall mshr miss latency ((Cycle/Count))
system.cpu.dcache.overallAvgMshrMissLatency::cpu.data  3497.676936                       # average overall mshr miss latency ((Cycle/Count))
system.cpu.dcache.overallAvgMshrMissLatency::total  3497.676936                       # average overall mshr miss latency ((Cycle/Count))
system.cpu.dcache.replacements                  73883                       # number of replacements (Count)
system.cpu.dcache.ReadReq.hits::cpu.data         2119                       # number of ReadReq hits (Count)
system.cpu.dcache.ReadReq.hits::total            2119                       # number of ReadReq hits (Count)
system.cpu.dcache.ReadReq.misses::cpu.data          311                       # number of ReadReq misses (Count)
system.cpu.dcache.ReadReq.misses::total           311                       # number of ReadReq misses (Count)
system.cpu.dcache.ReadReq.missLatency::cpu.data     26729000                       # number of ReadReq miss ticks (Tick)
system.cpu.dcache.ReadReq.missLatency::total     26729000                       # number of ReadReq miss ticks (Tick)
system.cpu.dcache.ReadReq.accesses::cpu.data         2430                       # number of ReadReq accesses(hits+misses) (Count)
system.cpu.dcache.ReadReq.accesses::total         2430                       # number of ReadReq accesses(hits+misses) (Count)
system.cpu.dcache.ReadReq.missRate::cpu.data     0.127984                       # miss rate for ReadReq accesses (Ratio)
system.cpu.dcache.ReadReq.missRate::total     0.127984                       # miss rate for ReadReq accesses (Ratio)
system.cpu.dcache.ReadReq.avgMissLatency::cpu.data 85945.337621                       # average ReadReq miss latency ((Tick/Count))
system.cpu.dcache.ReadReq.avgMissLatency::total 85945.337621                       # average ReadReq miss latency ((Tick/Count))
system.cpu.dcache.ReadReq.mshrHits::cpu.data          152                       # number of ReadReq MSHR hits (Count)
system.cpu.dcache.ReadReq.mshrHits::total          152                       # number of ReadReq MSHR hits (Count)
system.cpu.dcache.ReadReq.mshrMisses::cpu.data          159                       # number of ReadReq MSHR misses (Count)
system.cpu.dcache.ReadReq.mshrMisses::total          159                       # number of ReadReq MSHR misses (Count)
system.cpu.dcache.ReadReq.mshrMissLatency::cpu.data     14233005                       # number of ReadReq MSHR miss ticks (Tick)
system.cpu.dcache.ReadReq.mshrMissLatency::total     14233005                       # number of ReadReq MSHR miss ticks (Tick)
system.cpu.dcache.ReadReq.mshrMissRate::cpu.data     0.065432                       # mshr miss rate for ReadReq accesses (Ratio)
system.cpu.dcache.ReadReq.mshrMissRate::total     0.065432                       # mshr miss rate for ReadReq accesses (Ratio)
system.cpu.dcache.ReadReq.avgMshrMissLatency::cpu.data 89515.754717                       # average ReadReq mshr miss latency ((Tick/Count))
system.cpu.dcache.ReadReq.avgMshrMissLatency::total 89515.754717                       # average ReadReq mshr miss latency ((Tick/Count))
system.cpu.dcache.WriteReq.hits::cpu.data         1487                       # number of WriteReq hits (Count)
system.cpu.dcache.WriteReq.hits::total           1487                       # number of WriteReq hits (Count)
system.cpu.dcache.WriteReq.misses::cpu.data        73880                       # number of WriteReq misses (Count)
system.cpu.dcache.WriteReq.misses::total        73880                       # number of WriteReq misses (Count)
system.cpu.dcache.WriteReq.missLatency::cpu.data    392488000                       # number of WriteReq miss ticks (Tick)
system.cpu.dcache.WriteReq.missLatency::total    392488000                       # number of WriteReq miss ticks (Tick)
system.cpu.dcache.WriteReq.accesses::cpu.data        75367                       # number of WriteReq accesses(hits+misses) (Count)
system.cpu.dcache.WriteReq.accesses::total        75367                       # number of WriteReq accesses(hits+misses) (Count)
system.cpu.dcache.WriteReq.missRate::cpu.data     0.980270                       # miss rate for WriteReq accesses (Ratio)
system.cpu.dcache.WriteReq.missRate::total     0.980270                       # miss rate for WriteReq accesses (Ratio)
system.cpu.dcache.WriteReq.avgMissLatency::cpu.data  5312.506768                       # average WriteReq miss latency ((Tick/Count))
system.cpu.dcache.WriteReq.avgMissLatency::total  5312.506768                       # average WriteReq miss latency ((Tick/Count))
system.cpu.dcache.WriteReq.mshrHits::cpu.data            1                       # number of WriteReq MSHR hits (Count)
system.cpu.dcache.WriteReq.mshrHits::total            1                       # number of WriteReq MSHR hits (Count)
system.cpu.dcache.WriteReq.mshrMisses::cpu.data        73879                       # number of WriteReq MSHR misses (Count)
system.cpu.dcache.WriteReq.mshrMisses::total        73879                       # number of WriteReq MSHR misses (Count)
system.cpu.dcache.WriteReq.mshrMissLatency::cpu.data    244728000                       # number of WriteReq MSHR miss ticks (Tick)
system.cpu.dcache.WriteReq.mshrMissLatency::total    244728000                       # number of WriteReq MSHR miss ticks (Tick)
system.cpu.dcache.WriteReq.mshrMissRate::cpu.data     0.980257                       # mshr miss rate for WriteReq accesses (Ratio)
system.cpu.dcache.WriteReq.mshrMissRate::total     0.980257                       # mshr miss rate for WriteReq accesses (Ratio)
system.cpu.dcache.WriteReq.avgMshrMissLatency::cpu.data  3312.551605                       # average WriteReq mshr miss latency ((Tick/Count))
system.cpu.dcache.WriteReq.avgMshrMissLatency::total  3312.551605                       # average WriteReq mshr miss latency ((Tick/Count))
system.cpu.dcache.power_state.pwrStateResidencyTicks::UNDEFINED    429945000                       # Cumulative time (in ticks) in various power states (Tick)
system.cpu.dcache.tags.tagsInUse           121.377941                       # Average ticks per tags in use ((Tick/Count))
system.cpu.dcache.tags.totalRefs                77646                       # Total number of references to valid blocks. (Count)
system.cpu.dcache.tags.sampledRefs              74009                       # Sample count of references to valid blocks. (Count)
system.cpu.dcache.tags.avgRefs               1.049143                       # Average number of references to valid blocks. ((Count/Count))
system.cpu.dcache.tags.warmupTick              225000                       # The tick when the warmup percentage was hit. (Tick)
system.cpu.dcache.tags.occupancies::cpu.data   121.377941                       # Average occupied blocks per tick, per requestor ((Count/Tick))
system.cpu.dcache.tags.avgOccs::cpu.data     0.948265                       # Average percentage of cache occupancy ((Ratio/Tick))
system.cpu.dcache.tags.avgOccs::total        0.948265                       # Average percentage of cache occupancy ((Ratio/Tick))
system.cpu.dcache.tags.occupanciesTaskId::1024          126                       # Occupied blocks per task id (Count)
system.cpu.dcache.tags.ageTaskId_1024::0           30                       # Occupied blocks per task id, per block age (Count)
system.cpu.dcache.tags.ageTaskId_1024::2           96                       # Occupied blocks per task id, per block age (Count)
system.cpu.dcache.tags.ratioOccsTaskId::1024     0.984375                       # Ratio of occupied blocks and all blocks, per task id (Ratio)
system.cpu.dcache.tags.tagAccesses             229603                       # Number of tag accesses (Count)
system.cpu.dcache.tags.dataAccesses            229603                       # Number of data accesses (Count)
system.cpu.dcache.tags.power_state.pwrStateResidencyTicks::UNDEFINED    429945000                       # Cumulative time (in ticks) in various power states (Tick)
system.cpu.decode.idleCycles                    25089                       # Number of cycles decode is idle (Cycle)
system.cpu.decode.blockedCycles                354283                       # Number of cycles decode is blocked (Cycle)
system.cpu.decode.runCycles                      4619                       # Number of cycles decode is running (Cycle)
system.cpu.decode.unblockCycles                 24031                       # Number of cycles decode is unblocking (Cycle)
system.cpu.decode.squashCycles                    602                       # Number of cycles decode is squashing (Cycle)
system.cpu.decode.branchResolved                 9495                       # Number of times decode resolved a branch (Count)
system.cpu.decode.branchMispred                   228                       # Number of times decode detected a branch misprediction (Count)
system.cpu.decode.decodedInsts                 220896                       # Number of instructions handled by decode (Count)
system.cpu.decode.squashedInsts                  1168                       # Number of squashed instructions handled by decode (Count)
system.cpu.fetch.icacheStallCycles              33274                       # Number of cycles fetch is stalled on an Icache miss (Cycle)
system.cpu.fetch.insts                         150257                       # Number of instructions fetch has processed (Count)
system.cpu.fetch.branches                       12208                       # Number of branches that fetch encountered (Count)
system.cpu.fetch.predictedBranches               9632                       # Number of branches that fetch has predicted taken (Count)
system.cpu.fetch.cycles                        373621                       # Number of cycles fetch has run and was not squashing or blocked (Cycle)
system.cpu.fetch.squashCycles                    1644                       # Number of cycles fetch has spent squashing (Cycle)
system.cpu.fetch.miscStallCycles                  130                       # Number of cycles fetch has spent waiting on interrupts, or bad addresses, or out of MSHRs (Cycle)
system.cpu.fetch.pendingTrapStallCycles           762                       # Number of stall cycles due to pending traps (Cycle)
system.cpu.fetch.pendingQuiesceStallCycles            4                       # Number of stall cycles due to pending quiesce instructions (Cycle)
system.cpu.fetch.icacheWaitRetryStallCycles           11                       # Number of stall cycles due to full MSHR (Cycle)
system.cpu.fetch.cacheLines                     18868                       # Number of cache lines fetched (Count)
system.cpu.fetch.icacheSquashes                   353                       # Number of outstanding Icache misses that were squashed (Count)
system.cpu.fetch.nisnDist::samples             408624                       # Number of instructions fetched each cycle (Total) (Count)
system.cpu.fetch.nisnDist::mean              0.549929                       # Number of instructions fetched each cycle (Total) (Count)
system.cpu.fetch.nisnDist::stdev             1.823529                       # Number of instructions fetched each cycle (Total) (Count)
system.cpu.fetch.nisnDist::underflows               0      0.00%      0.00% # Number of instructions fetched each cycle (Total) (Count)
system.cpu.fetch.nisnDist::0                   365109     89.35%     89.35% # Number of instructions fetched each cycle (Total) (Count)
system.cpu.fetch.nisnDist::1                     7410      1.81%     91.16% # Number of instructions fetched each cycle (Total) (Count)
system.cpu.fetch.nisnDist::2                     3270      0.80%     91.96% # Number of instructions fetched each cycle (Total) (Count)
system.cpu.fetch.nisnDist::3                     3410      0.83%     92.80% # Number of instructions fetched each cycle (Total) (Count)
system.cpu.fetch.nisnDist::4                     3652      0.89%     93.69% # Number of instructions fetched each cycle (Total) (Count)
system.cpu.fetch.nisnDist::5                     3407      0.83%     94.53% # Number of instructions fetched each cycle (Total) (Count)
system.cpu.fetch.nisnDist::6                     3349      0.82%     95.35% # Number of instructions fetched each cycle (Total) (Count)
system.cpu.fetch.nisnDist::7                     3339      0.82%     96.16% # Number of instructions fetched each cycle (Total) (Count)
system.cpu.fetch.nisnDist::8                    15678      3.84%    100.00% # Number of instructions fetched each cycle (Total) (Count)
system.cpu.fetch.nisnDist::overflows                0      0.00%    100.00% # Number of instructions fetched each cycle (Total) (Count)
system.cpu.fetch.nisnDist::min_value                0                       # Number of instructions fetched each cycle (Total) (Count)
system.cpu.fetch.nisnDist::max_value                8                       # Number of instructions fetched each cycle (Total) (Count)
system.cpu.fetch.nisnDist::total               408624                       # Number of instructions fetched each cycle (Total) (Count)
system.cpu.fetch.branchRate                  0.028394                       # Number of branch fetches per cycle (Ratio)
system.cpu.fetch.rate                        0.349479                       # Number of inst fetches per cycle ((Count/Cycle))
system.cpu.icache.demandHits::cpu.inst          18237                       # number of demand (read+write) hits (Count)
system.cpu.icache.demandHits::total             18237                       # number of demand (read+write) hits (Count)
system.cpu.icache.overallHits::cpu.inst         18237                       # number of overall hits (Count)
system.cpu.icache.overallHits::total            18237                       # number of overall hits (Count)
system.cpu.icache.demandMisses::cpu.inst          631                       # number of demand (read+write) misses (Count)
system.cpu.icache.demandMisses::total             631                       # number of demand (read+write) misses (Count)
system.cpu.icache.overallMisses::cpu.inst          631                       # number of overall misses (Count)
system.cpu.icache.overallMisses::total            631                       # number of overall misses (Count)
system.cpu.icache.demandMissLatency::cpu.inst     61157000                       # number of demand (read+write) miss ticks (Tick)
system.cpu.icache.demandMissLatency::total     61157000                       # number of demand (read+write) miss ticks (Tick)
system.cpu.icache.overallMissLatency::cpu.inst     61157000                       # number of overall miss ticks (Tick)
system.cpu.icache.overallMissLatency::total     61157000                       # number of overall miss ticks (Tick)
system.cpu.icache.demandAccesses::cpu.inst        18868                       # number of demand (read+write) accesses (Count)
system.cpu.icache.demandAccesses::total         18868                       # number of demand (read+write) accesses (Count)
system.cpu.icache.overallAccesses::cpu.inst        18868                       # number of overall (read+write) accesses (Count)
system.cpu.icache.overallAccesses::total        18868                       # number of overall (read+write) accesses (Count)
system.cpu.icache.demandMissRate::cpu.inst     0.033443                       # miss rate for demand accesses (Ratio)
system.cpu.icache.demandMissRate::total      0.033443                       # miss rate for demand accesses (Ratio)
system.cpu.icache.overallMissRate::cpu.inst     0.033443                       # miss rate for overall accesses (Ratio)
system.cpu.icache.overallMissRate::total     0.033443                       # miss rate for overall accesses (Ratio)
system.cpu.icache.demandAvgMissLatency::cpu.inst 96920.760697                       # average overall miss latency ((Cycle/Count))
system.cpu.icache.demandAvgMissLatency::total 96920.760697                       # average overall miss latency ((Cycle/Count))
system.cpu.icache.overallAvgMissLatency::cpu.inst 96920.760697                       # average overall miss latency ((Cycle/Count))
system.cpu.icache.overallAvgMissLatency::total 96920.760697                       # average overall miss latency ((Cycle/Count))
system.cpu.icache.blockedCycles::no_mshrs           73                       # number of cycles access was blocked (Cycle)
system.cpu.icache.blockedCycles::no_targets            0                       # number of cycles access was blocked (Cycle)
system.cpu.icache.blockedCauses::no_mshrs            3                       # number of times access was blocked (Count)
system.cpu.icache.blockedCauses::no_targets            0                       # number of times access was blocked (Count)
system.cpu.icache.avgBlocked::no_mshrs      24.333333                       # average number of cycles each access was blocked ((Cycle/Count))
system.cpu.icache.avgBlocked::no_targets          nan                       # average number of cycles each access was blocked ((Cycle/Count))
system.cpu.icache.demandMshrHits::cpu.inst          149                       # number of demand (read+write) MSHR hits (Count)
system.cpu.icache.demandMshrHits::total           149                       # number of demand (read+write) MSHR hits (Count)
system.cpu.icache.overallMshrHits::cpu.inst          149                       # number of overall MSHR hits (Count)
system.cpu.icache.overallMshrHits::total          149                       # number of overall MSHR hits (Count)
system.cpu.icache.demandMshrMisses::cpu.inst          482                       # number of demand (read+write) MSHR misses (Count)
system.cpu.icache.demandMshrMisses::total          482                       # number of demand (read+write) MSHR misses (Count)
system.cpu.icache.overallMshrMisses::cpu.inst          482                       # number of overall MSHR misses (Count)
system.cpu.icache.overallMshrMisses::total          482                       # number of overall MSHR misses (Count)
system.cpu.icache.demandMshrMissLatency::cpu.inst     48953000                       # number of demand (read+write) MSHR miss ticks (Tick)
system.cpu.icache.demandMshrMissLatency::total     48953000                       # number of demand (read+write) MSHR miss ticks (Tick)
system.cpu.icache.overallMshrMissLatency::cpu.inst     48953000                       # number of overall MSHR miss ticks (Tick)
system.cpu.icache.overallMshrMissLatency::total     48953000                       # number of overall MSHR miss ticks (Tick)
system.cpu.icache.demandMshrMissRate::cpu.inst     0.025546                       # mshr miss ratio for demand accesses (Ratio)
system.cpu.icache.demandMshrMissRate::total     0.025546                       # mshr miss ratio for demand accesses (Ratio)
system.cpu.icache.overallMshrMissRate::cpu.inst     0.025546                       # mshr miss ratio for overall accesses (Ratio)
system.cpu.icache.overallMshrMissRate::total     0.025546                       # mshr miss ratio for overall accesses (Ratio)
system.cpu.icache.demandAvgMshrMissLatency::cpu.inst 101562.240664                       # average overall mshr miss latency ((Cycle/Count))
system.cpu.icache.demandAvgMshrMissLatency::total 101562.240664                       # average overall mshr miss latency ((Cycle/Count))
system.cpu.icache.overallAvgMshrMissLatency::cpu.inst 101562.240664                       # average overall mshr miss latency ((Cycle/Count))
system.cpu.icache.overallAvgMshrMissLatency::total 101562.240664                       # average overall mshr miss latency ((Cycle/Count))
system.cpu.icache.replacements                    237                       # number of replacements (Count)
system.cpu.icache.ReadReq.hits::cpu.inst        18237                       # number of ReadReq hits (Count)
system.cpu.icache.ReadReq.hits::total           18237                       # number of ReadReq hits (Count)
system.cpu.icache.ReadReq.misses::cpu.inst          631                       # number of ReadReq misses (Count)
system.cpu.icache.ReadReq.misses::total           631                       # number of ReadReq misses (Count)
system.cpu.icache.ReadReq.missLatency::cpu.inst     61157000                       # number of ReadReq miss ticks (Tick)
system.cpu.icache.ReadReq.missLatency::total     61157000                       # number of ReadReq miss ticks (Tick)
system.cpu.icache.ReadReq.accesses::cpu.inst        18868                       # number of ReadReq accesses(hits+misses) (Count)
system.cpu.icache.ReadReq.accesses::total        18868                       # number of ReadReq accesses(hits+misses) (Count)
system.cpu.icache.ReadReq.missRate::cpu.inst     0.033443                       # miss rate for ReadReq accesses (Ratio)
system.cpu.icache.ReadReq.missRate::total     0.033443                       # miss rate for ReadReq accesses (Ratio)
system.cpu.icache.ReadReq.avgMissLatency::cpu.inst 96920.760697                       # average ReadReq miss latency ((Tick/Count))
system.cpu.icache.ReadReq.avgMissLatency::total 96920.760697                       # average ReadReq miss latency ((Tick/Count))
system.cpu.icache.ReadReq.mshrHits::cpu.inst          149                       # number of ReadReq MSHR hits (Count)
system.cpu.icache.ReadReq.mshrHits::total          149                       # number of ReadReq MSHR hits (Count)
system.cpu.icache.ReadReq.mshrMisses::cpu.inst          482                       # number of ReadReq MSHR misses (Count)
system.cpu.icache.ReadReq.mshrMisses::total          482                       # number of ReadReq MSHR misses (Count)
system.cpu.icache.ReadReq.mshrMissLatency::cpu.inst     48953000                       # number of ReadReq MSHR miss ticks (Tick)
system.cpu.icache.ReadReq.mshrMissLatency::total     48953000                       # number of ReadReq MSHR miss ticks (Tick)
system.cpu.icache.ReadReq.mshrMissRate::cpu.inst     0.025546                       # mshr miss rate for ReadReq accesses (Ratio)
system.cpu.icache.ReadReq.mshrMissRate::total     0.025546                       # mshr miss rate for ReadReq accesses (Ratio)
system.cpu.icache.ReadReq.avgMshrMissLatency::cpu.inst 101562.240664                       # average ReadReq mshr miss latency ((Tick/Count))
system.cpu.icache.ReadReq.avgMshrMissLatency::total 101562.240664                       # average ReadReq mshr miss latency ((Tick/Count))
system.cpu.icache.power_state.pwrStateResidencyTicks::UNDEFINED    429945000                       # Cumulative time (in ticks) in various power states (Tick)
system.cpu.icache.tags.tagsInUse           233.125211                       # Average ticks per tags in use ((Tick/Count))
system.cpu.icache.tags.totalRefs                18719                       # Total number of references to valid blocks. (Count)
system.cpu.icache.tags.sampledRefs                482                       # Sample count of references to valid blocks. (Count)
system.cpu.icache.tags.avgRefs              38.836100                       # Average number of references to valid blocks. ((Count/Count))
system.cpu.icache.tags.warmupTick              107000                       # The tick when the warmup percentage was hit. (Tick)
system.cpu.icache.tags.occupancies::cpu.inst   233.125211                       # Average occupied blocks per tick, per requestor ((Count/Tick))
system.cpu.icache.tags.avgOccs::cpu.inst     0.910645                       # Average percentage of cache occupancy ((Ratio/Tick))
system.cpu.icache.tags.avgOccs::total        0.910645                       # Average percentage of cache occupancy ((Ratio/Tick))
system.cpu.icache.tags.occupanciesTaskId::1024          245                       # Occupied blocks per task id (Count)
system.cpu.icache.tags.ageTaskId_1024::0           37                       # Occupied blocks per task id, per block age (Count)
system.cpu.icache.tags.ageTaskId_1024::2          208                       # Occupied blocks per task id, per block age (Count)
system.cpu.icache.tags.ratioOccsTaskId::1024     0.957031                       # Ratio of occupied blocks and all blocks, per task id (Ratio)
system.cpu.icache.tags.tagAccesses              38218                       # Number of tag accesses (Count)
system.cpu.icache.tags.dataAccesses             38218                       # Number of data accesses (Count)
system.cpu.icache.tags.power_state.pwrStateResidencyTicks::UNDEFINED    429945000                       # Cumulative time (in ticks) in various power states (Tick)
system.cpu.interrupts.clk_domain.clock          16000                       # Clock period in ticks (Tick)
system.cpu.lsq0.forwLoads                         191                       # Number of loads that had data forwarded from stores (Count)
system.cpu.lsq0.squashedLoads                    1568                       # Number of loads squashed (Count)
system.cpu.lsq0.ignoredResponses                    2                       # Number of memory responses ignored because the instruction is squashed (Count)
system.cpu.lsq0.memOrderViolation                  10                       # Number of memory ordering violations (Count)
system.cpu.lsq0.squashedStores                    958                       # Number of stores squashed (Count)
system.cpu.lsq0.rescheduledLoads                    1                       # Number of loads that were rescheduled (Count)
system.cpu.lsq0.blockedByCache                     11                       # Number of times an access to memory failed due to the cache being blocked (Count)
system.cpu.lsq0.loadToUse::samples               1552                       # Distribution of cycle latency between the first time a load is issued and its completion (Unspecified)
system.cpu.lsq0.loadToUse::mean             12.567655                       # Distribution of cycle latency between the first time a load is issued and its completion (Unspecified)
system.cpu.lsq0.loadToUse::stdev            32.692015                       # Distribution of cycle latency between the first time a load is issued and its completion (Unspecified)
system.cpu.lsq0.loadToUse::0-9                   1412     90.98%     90.98% # Distribution of cycle latency between the first time a load is issued and its completion (Unspecified)
system.cpu.lsq0.loadToUse::10-19                    3      0.19%     91.17% # Distribution of cycle latency between the first time a load is issued and its completion (Unspecified)
system.cpu.lsq0.loadToUse::20-29                    4      0.26%     91.43% # Distribution of cycle latency between the first time a load is issued and its completion (Unspecified)
system.cpu.lsq0.loadToUse::30-39                    4      0.26%     91.69% # Distribution of cycle latency between the first time a load is issued and its completion (Unspecified)
system.cpu.lsq0.loadToUse::40-49                    1      0.06%     91.75% # Distribution of cycle latency between the first time a load is issued and its completion (Unspecified)
system.cpu.lsq0.loadToUse::50-59                    4      0.26%     92.01% # Distribution of cycle latency between the first time a load is issued and its completion (Unspecified)
system.cpu.lsq0.loadToUse::60-69                    3      0.19%     92.20% # Distribution of cycle latency between the first time a load is issued and its completion (Unspecified)
system.cpu.lsq0.loadToUse::70-79                    1      0.06%     92.27% # Distribution of cycle latency between the first time a load is issued and its completion (Unspecified)
system.cpu.lsq0.loadToUse::80-89                    7      0.45%     92.72% # Distribution of cycle latency between the first time a load is issued and its completion (Unspecified)
system.cpu.lsq0.loadToUse::90-99                   24      1.55%     94.27% # Distribution of cycle latency between the first time a load is issued and its completion (Unspecified)
system.cpu.lsq0.loadToUse::100-109                 20      1.29%     95.55% # Distribution of cycle latency between the first time a load is issued and its completion (Unspecified)
system.cpu.lsq0.loadToUse::110-119                 25      1.61%     97.16% # Distribution of cycle latency between the first time a load is issued and its completion (Unspecified)
system.cpu.lsq0.loadToUse::120-129                 32      2.06%     99.23% # Distribution of cycle latency between the first time a load is issued and its completion (Unspecified)
system.cpu.lsq0.loadToUse::130-139                  3      0.19%     99.42% # Distribution of cycle latency between the first time a load is issued and its completion (Unspecified)
system.cpu.lsq0.loadToUse::160-169                  2      0.13%     99.55% # Distribution of cycle latency between the first time a load is issued and its completion (Unspecified)
system.cpu.lsq0.loadToUse::200-209                  5      0.32%     99.87% # Distribution of cycle latency between the first time a load is issued and its completion (Unspecified)
system.cpu.lsq0.loadToUse::280-289                  1      0.06%     99.94% # Distribution of cycle latency between the first time a load is issued and its completion (Unspecified)
system.cpu.lsq0.loadToUse::overflows                1      0.06%    100.00% # Distribution of cycle latency between the first time a load is issued and its completion (Unspecified)
system.cpu.lsq0.loadToUse::min_value                2                       # Distribution of cycle latency between the first time a load is issued and its completion (Unspecified)
system.cpu.lsq0.loadToUse::max_value              351                       # Distribution of cycle latency between the first time a load is issued and its completion (Unspecified)
system.cpu.lsq0.loadToUse::total                 1552                       # Distribution of cycle latency between the first time a load is issued and its completion (Unspecified)
system.cpu.mmu.dtb.rdAccesses                    2689                       # TLB accesses on read requests (Count)
system.cpu.mmu.dtb.wrAccesses                   75906                       # TLB accesses on write requests (Count)
system.cpu.mmu.dtb.rdMisses                        76                       # TLB misses on read requests (Count)
system.cpu.mmu.dtb.wrMisses                        33                       # TLB misses on write requests (Count)
system.cpu.mmu.dtb.walker.power_state.pwrStateResidencyTicks::UNDEFINED    429945000                       # Cumulative time (in ticks) in various power states (Tick)
system.cpu.mmu.itb.rdAccesses                       0                       # TLB accesses on read requests (Count)
system.cpu.mmu.itb.wrAccesses                   19001                       # TLB accesses on write requests (Count)
system.cpu.mmu.itb.rdMisses                         0                       # TLB misses on read requests (Count)
system.cpu.mmu.itb.wrMisses                       175                       # TLB misses on write requests (Count)
system.cpu.mmu.itb.walker.power_state.pwrStateResidencyTicks::UNDEFINED    429945000                       # Cumulative time (in ticks) in various power states (Tick)
system.cpu.power_state.pwrStateResidencyTicks::ON    429945000                       # Cumulative time (in ticks) in various power states (Tick)
system.cpu.rename.squashCycles                    602                       # Number of cycles rename is squashing (Cycle)
system.cpu.rename.idleCycles                    32667                       # Number of cycles rename is idle (Cycle)
system.cpu.rename.blockCycles                    7207                       # Number of cycles rename is blocking (Cycle)
system.cpu.rename.serializeStallCycles             35                       # count of cycles rename stalled for serializing inst (Cycle)
system.cpu.rename.runCycles                     21035                       # Number of cycles rename is running (Cycle)
system.cpu.rename.unblockCycles                347078                       # Number of cycles rename is unblocking (Cycle)
system.cpu.rename.renamedInsts                 219740                       # Number of instructions processed by rename (Count)
system.cpu.rename.ROBFullEvents                    14                       # Number of times rename has blocked due to ROB full (Count)
system.cpu.rename.IQFullEvents                    143                       # Number of times rename has blocked due to IQ full (Count)
[...]
system.victimbus.pktCount_system.cpu.dcache.mem_side_port::system.victimcache.cpu_side_port       221961                       # Packet count per connected requestor and responder (Count)
system.victimbus.pktSize_system.cpu.dcache.mem_side_port::system.victimcache.cpu_side_port      9465088                       # Cumulative packet size per connected requestor and responder (Byte)
system.victimbus.snoops                           487                       # Total snoops (Count)
system.victimbus.snoopTraffic                   31168                       # Total snoop traffic (Byte)
system.victimbus.snoopFanout::samples           74526                       # Request fanout histogram (Count)
system.victimbus.snoopFanout::mean           0.004549                       # Request fanout histogram (Count)
system.victimbus.snoopFanout::stdev          0.067291                       # Request fanout histogram (Count)
system.victimbus.snoopFanout::underflows            0      0.00%      0.00% # Request fanout histogram (Count)
system.victimbus.snoopFanout::0                 74187     99.55%     99.55% # Request fanout histogram (Count)
system.victimbus.snoopFanout::1                   339      0.45%    100.00% # Request fanout histogram (Count)
system.victimbus.snoopFanout::overflows             0      0.00%    100.00% # Request fanout histogram (Count)
system.victimbus.snoopFanout::min_value             0                       # Request fanout histogram (Count)
system.victimbus.snoopFanout::max_value             1                       # Request fanout histogram (Count)
system.victimbus.snoopFanout::total             74526                       # Request fanout histogram (Count)
system.victimbus.power_state.pwrStateResidencyTicks::UNDEFINED    429945000                       # Cumulative time (in ticks) in various power states (Tick)
system.victimbus.reqLayer0.occupancy        221805000                       # Layer occupancy (ticks) (Tick)
system.victimbus.reqLayer0.utilization            0.5                       # Layer utilization (Ratio)
system.victimbus.respLayer0.occupancy       222007966                       # Layer occupancy (ticks) (Tick)
system.victimbus.respLayer0.utilization           0.5                       # Layer utilization (Ratio)
system.victimbus.snoop_filter.totRequests       147922                       # Total number of requests made to the snoop filter. (Count)
system.victimbus.snoop_filter.hitSingleRequests        73913                       # Number of requests hitting in the snoop filter with a single holder of the requested data. (Count)
system.victimbus.snoop_filter.hitMultiRequests            0                       # Number of requests hitting in the snoop filter with multiple (>1) holders of the requested data. (Count)
system.victimbus.snoop_filter.totSnoops           339                       # Total number of snoops made to the snoop filter. (Count)
system.victimbus.snoop_filter.hitSingleSnoops          339                       # Number of snoops hitting in the snoop filter with a single holder of the requested data. (Count)
system.victimbus.snoop_filter.hitMultiSnoops            0                       # Number of snoops hitting in the snoop filter with multiple (>1) holders of the requested data. (Count)
system.victimcache.demandHits::cpu.data         73670                       # number of demand (read+write) hits (Count)
system.victimcache.demandHits::total            73670                       # number of demand (read+write) hits (Count)
system.victimcache.overallHits::cpu.data        73670                       # number of overall hits (Count)
system.victimcache.overallHits::total           73670                       # number of overall hits (Count)
system.victimcache.demandMisses::cpu.data          339                       # number of demand (read+write) misses (Count)
system.victimcache.demandMisses::total            339                       # number of demand (read+write) misses (Count)
system.victimcache.overallMisses::cpu.data          339                       # number of overall misses (Count)
system.victimcache.overallMisses::total           339                       # number of overall misses (Count)
system.victimcache.demandMissLatency::cpu.data     35244000                       # number of demand (read+write) miss ticks (Tick)
system.victimcache.demandMissLatency::total     35244000                       # number of demand (read+write) miss ticks (Tick)
system.victimcache.overallMissLatency::cpu.data     35244000                       # number of overall miss ticks (Tick)
system.victimcache.overallMissLatency::total     35244000                       # number of overall miss ticks (Tick)
system.victimcache.demandAccesses::cpu.data        74009                       # number of demand (read+write) accesses (Count)
system.victimcache.demandAccesses::total        74009                       # number of demand (read+write) accesses (Count)
system.victimcache.overallAccesses::cpu.data        74009                       # number of overall (read+write) accesses (Count)
system.victimcache.overallAccesses::total        74009                       # number of overall (read+write) accesses (Count)
system.victimcache.demandMissRate::cpu.data     0.004581                       # miss rate for demand accesses (Ratio)
system.victimcache.demandMissRate::total     0.004581                       # miss rate for demand accesses (Ratio)
system.victimcache.overallMissRate::cpu.data     0.004581                       # miss rate for overall accesses (Ratio)
system.victimcache.overallMissRate::total     0.004581                       # miss rate for overall accesses (Ratio)
system.victimcache.demandAvgMissLatency::cpu.data 103964.601770                       # average overall miss latency ((Cycle/Count))
system.victimcache.demandAvgMissLatency::total 103964.601770                       # average overall miss latency ((Cycle/Count))
system.victimcache.overallAvgMissLatency::cpu.data 103964.601770                       # average overall miss latency ((Cycle/Count))
system.victimcache.overallAvgMissLatency::total 103964.601770                       # average overall miss latency ((Cycle/Count))
system.victimcache.blockedCycles::no_mshrs          325                       # number of cycles access was blocked (Cycle)
system.victimcache.blockedCycles::no_targets            0                       # number of cycles access was blocked (Cycle)
system.victimcache.blockedCauses::no_mshrs           10                       # number of times access was blocked (Count)
system.victimcache.blockedCauses::no_targets            0                       # number of times access was blocked (Count)
system.victimcache.avgBlocked::no_mshrs     32.500000                       # average number of cycles each access was blocked ((Cycle/Count))
system.victimcache.avgBlocked::no_targets          nan                       # average number of cycles each access was blocked ((Cycle/Count))
system.victimcache.writebacks::writebacks          487                       # number of writebacks (Count)
system.victimcache.writebacks::total              487                       # number of writebacks (Count)
system.victimcache.demandMshrMisses::cpu.data          339                       # number of demand (read+write) MSHR misses (Count)
system.victimcache.demandMshrMisses::total          339                       # number of demand (read+write) MSHR misses (Count)
system.victimcache.overallMshrMisses::cpu.data          339                       # number of overall MSHR misses (Count)
system.victimcache.overallMshrMisses::total          339                       # number of overall MSHR misses (Count)
system.victimcache.demandMshrMissLatency::cpu.data     35244000                       # number of demand (read+write) MSHR miss ticks (Tick)
system.victimcache.demandMshrMissLatency::total     35244000                       # number of demand (read+write) MSHR miss ticks (Tick)
system.victimcache.overallMshrMissLatency::cpu.data     35244000                       # number of overall MSHR miss ticks (Tick)
system.victimcache.overallMshrMissLatency::total     35244000                       # number of overall MSHR miss ticks (Tick)
system.victimcache.demandMshrMissRate::cpu.data     0.004581                       # mshr miss ratio for demand accesses (Ratio)
system.victimcache.demandMshrMissRate::total     0.004581                       # mshr miss ratio for demand accesses (Ratio)
system.victimcache.overallMshrMissRate::cpu.data     0.004581                       # mshr miss ratio for overall accesses (Ratio)
system.victimcache.overallMshrMissRate::total     0.004581                       # mshr miss ratio for overall accesses (Ratio)
system.victimcache.demandAvgMshrMissLatency::cpu.data 103964.601770                       # average overall mshr miss latency ((Cycle/Count))
system.victimcache.demandAvgMshrMissLatency::total 103964.601770                       # average overall mshr miss latency ((Cycle/Count))
system.victimcache.overallAvgMshrMissLatency::cpu.data 103964.601770                       # average overall mshr miss latency ((Cycle/Count))
system.victimcache.overallAvgMshrMissLatency::total 103964.601770                       # average overall mshr miss latency ((Cycle/Count))
system.victimcache.replacements                   149                       # number of replacements (Count)
system.victimcache.ReadExReq.hits::cpu.data        73640                       # number of ReadExReq hits (Count)
system.victimcache.ReadExReq.hits::total        73640                       # number of ReadExReq hits (Count)
system.victimcache.ReadExReq.misses::cpu.data          210                       # number of ReadExReq misses (Count)
system.victimcache.ReadExReq.misses::total          210                       # number of ReadExReq misses (Count)
system.victimcache.ReadExReq.missLatency::cpu.data     21510000                       # number of ReadExReq miss ticks (Tick)
system.victimcache.ReadExReq.missLatency::total     21510000                       # number of ReadExReq miss ticks (Tick)
system.victimcache.ReadExReq.accesses::cpu.data        73850                       # number of ReadExReq accesses(hits+misses) (Count)
system.victimcache.ReadExReq.accesses::total        73850                       # number of ReadExReq accesses(hits+misses) (Count)
system.victimcache.ReadExReq.missRate::cpu.data     0.002844                       # miss rate for ReadExReq accesses (Ratio)
system.victimcache.ReadExReq.missRate::total     0.002844                       # miss rate for ReadExReq accesses (Ratio)
system.victimcache.ReadExReq.avgMissLatency::cpu.data 102428.571429                       # average ReadExReq miss latency ((Tick/Count))
system.victimcache.ReadExReq.avgMissLatency::total 102428.571429                       # average ReadExReq miss latency ((Tick/Count))
system.victimcache.ReadExReq.mshrMisses::cpu.data          210                       # number of ReadExReq MSHR misses (Count)
system.victimcache.ReadExReq.mshrMisses::total          210                       # number of ReadExReq MSHR misses (Count)
system.victimcache.ReadExReq.mshrMissLatency::cpu.data     21510000                       # number of ReadExReq MSHR miss ticks (Tick)
system.victimcache.ReadExReq.mshrMissLatency::total     21510000                       # number of ReadExReq MSHR miss ticks (Tick)
system.victimcache.ReadExReq.mshrMissRate::cpu.data     0.002844                       # mshr miss rate for ReadExReq accesses (Ratio)
system.victimcache.ReadExReq.mshrMissRate::total     0.002844                       # mshr miss rate for ReadExReq accesses (Ratio)
system.victimcache.ReadExReq.avgMshrMissLatency::cpu.data 102428.571429                       # average ReadExReq mshr miss latency ((Tick/Count))
system.victimcache.ReadExReq.avgMshrMissLatency::total 102428.571429                       # average ReadExReq mshr miss latency ((Tick/Count))
system.victimcache.ReadSharedReq.hits::cpu.data           30                       # number of ReadSharedReq hits (Count)
system.victimcache.ReadSharedReq.hits::total           30                       # number of ReadSharedReq hits (Count)
system.victimcache.ReadSharedReq.misses::cpu.data          129                       # number of ReadSharedReq misses (Count)
system.victimcache.ReadSharedReq.misses::total          129                       # number of ReadSharedReq misses (Count)
system.victimcache.ReadSharedReq.missLatency::cpu.data     13734000                       # number of ReadSharedReq miss ticks (Tick)
system.victimcache.ReadSharedReq.missLatency::total     13734000                       # number of ReadSharedReq miss ticks (Tick)
system.victimcache.ReadSharedReq.accesses::cpu.data          159                       # number of ReadSharedReq accesses(hits+misses) (Count)
system.victimcache.ReadSharedReq.accesses::total          159                       # number of ReadSharedReq accesses(hits+misses) (Count)
system.victimcache.ReadSharedReq.missRate::cpu.data     0.811321                       # miss rate for ReadSharedReq accesses (Ratio)
system.victimcache.ReadSharedReq.missRate::total     0.811321                       # miss rate for ReadSharedReq accesses (Ratio)
system.victimcache.ReadSharedReq.avgMissLatency::cpu.data 106465.116279                       # average ReadSharedReq miss latency ((Tick/Count))
system.victimcache.ReadSharedReq.avgMissLatency::total 106465.116279                       # average ReadSharedReq miss latency ((Tick/Count))
system.victimcache.ReadSharedReq.mshrMisses::cpu.data          129                       # number of ReadSharedReq MSHR misses (Count)
system.victimcache.ReadSharedReq.mshrMisses::total          129                       # number of ReadSharedReq MSHR misses (Count)
system.victimcache.ReadSharedReq.mshrMissLatency::cpu.data     13734000                       # number of ReadSharedReq MSHR miss ticks (Tick)
system.victimcache.ReadSharedReq.mshrMissLatency::total     13734000                       # number of ReadSharedReq MSHR miss ticks (Tick)
system.victimcache.ReadSharedReq.mshrMissRate::cpu.data     0.811321                       # mshr miss rate for ReadSharedReq accesses (Ratio)
system.victimcache.ReadSharedReq.mshrMissRate::total     0.811321                       # mshr miss rate for ReadSharedReq accesses (Ratio)
system.victimcache.ReadSharedReq.avgMshrMissLatency::cpu.data 106465.116279                       # average ReadSharedReq mshr miss latency ((Tick/Count))
system.victimcache.ReadSharedReq.avgMshrMissLatency::total 106465.116279                       # average ReadSharedReq mshr miss latency ((Tick/Count))
system.victimcache.UpgradeReq.misses::cpu.data           30                       # number of UpgradeReq misses (Count)
system.victimcache.UpgradeReq.misses::total           30                       # number of UpgradeReq misses (Count)
system.victimcache.UpgradeReq.accesses::cpu.data           30                       # number of UpgradeReq accesses(hits+misses) (Count)
system.victimcache.UpgradeReq.accesses::total           30                       # number of UpgradeReq accesses(hits+misses) (Count)
system.victimcache.UpgradeReq.missRate::cpu.data            1                       # miss rate for UpgradeReq accesses (Ratio)
system.victimcache.UpgradeReq.missRate::total            1                       # miss rate for UpgradeReq accesses (Ratio)
system.victimcache.UpgradeReq.mshrMisses::cpu.data           30                       # number of UpgradeReq MSHR misses (Count)
system.victimcache.UpgradeReq.mshrMisses::total           30                       # number of UpgradeReq MSHR misses (Count)
system.victimcache.UpgradeReq.mshrMissLatency::cpu.data      1559000                       # number of UpgradeReq MSHR miss ticks (Tick)
system.victimcache.UpgradeReq.mshrMissLatency::total      1559000                       # number of UpgradeReq MSHR miss ticks (Tick)
system.victimcache.UpgradeReq.mshrMissRate::cpu.data            1                       # mshr miss rate for UpgradeReq accesses (Ratio)
system.victimcache.UpgradeReq.mshrMissRate::total            1                       # mshr miss rate for UpgradeReq accesses (Ratio)
system.victimcache.UpgradeReq.avgMshrMissLatency::cpu.data 51966.666667                       # average UpgradeReq mshr miss latency ((Tick/Count))
system.victimcache.UpgradeReq.avgMshrMissLatency::total 51966.666667                       # average UpgradeReq mshr miss latency ((Tick/Count))
system.victimcache.WritebackClean.hits::writebacks           66                       # number of WritebackClean hits (Count)
system.victimcache.WritebackClean.hits::total           66                       # number of WritebackClean hits (Count)
system.victimcache.WritebackClean.accesses::writebacks           66                       # number of WritebackClean accesses(hits+misses) (Count)
system.victimcache.WritebackClean.accesses::total           66                       # number of WritebackClean accesses(hits+misses) (Count)
system.victimcache.WritebackDirty.hits::writebacks        73817                       # number of WritebackDirty hits (Count)
system.victimcache.WritebackDirty.hits::total        73817                       # number of WritebackDirty hits (Count)
system.victimcache.WritebackDirty.accesses::writebacks        73817                       # number of WritebackDirty accesses(hits+misses) (Count)
system.victimcache.WritebackDirty.accesses::total        73817                       # number of WritebackDirty accesses(hits+misses) (Count)
system.victimcache.power_state.pwrStateResidencyTicks::UNDEFINED    429945000                       # Cumulative time (in ticks) in various power states (Tick)
system.victimcache.tags.tagsInUse           59.957155                       # Average ticks per tags in use ((Tick/Count))
system.victimcache.tags.totalRefs              147554                       # Total number of references to valid blocks. (Count)
system.victimcache.tags.sampledRefs             73883                       # Sample count of references to valid blocks. (Count)
system.victimcache.tags.avgRefs              1.997131                       # Average number of references to valid blocks. ((Count/Count))
system.victimcache.tags.warmupTick           11118000                       # The tick when the warmup percentage was hit. (Tick)
system.victimcache.tags.occupancies::writebacks    59.957155                       # Average occupied blocks per tick, per requestor ((Count/Tick))
system.victimcache.tags.avgOccs::writebacks     0.936831                       # Average percentage of cache occupancy ((Ratio/Tick))
system.victimcache.tags.avgOccs::total       0.936831                       # Average percentage of cache occupancy ((Ratio/Tick))
system.victimcache.tags.occupanciesTaskId::1024           64                       # Occupied blocks per task id (Count)
system.victimcache.tags.ageTaskId_1024::0           64                       # Occupied blocks per task id, per block age (Count)
system.victimcache.tags.ratioOccsTaskId::1024            1                       # Ratio of occupied blocks and all blocks, per task id (Ratio)
system.victimcache.tags.tagAccesses           9540891                       # Number of tag accesses (Count)
system.victimcache.tags.dataAccesses          9540891                       # Number of data accesses (Count)
system.victimcache.tags.power_state.pwrStateResidencyTicks::UNDEFINED    429945000                       # Cumulative time (in ticks) in various power states (Tick)
system.workload.inst.arm                            0                       # number of arm instructions executed (Count)
system.workload.inst.quiesce                        0                       # number of quiesce instructions executed (Count)

---------- End Simulation Statistics   ----------
