
---------- Begin Simulation Statistics ----------
simSeconds                                   0.000196                       # Number of seconds simulated (Second)
simTicks                                    195940000                       # Number of ticks simulated (Tick)
finalTick                                   195940000                       # Number of ticks from beginning of simulation (restored from checkpoints and never reset) (Tick)
simFreq                                  1000000000000                       # The number of ticks per simulated second ((Tick/Second))
hostSeconds                                      0.06                       # Real time elapsed on the host (Second)
hostTickRate                               3144807369                       # The number of ticks simulated per host second (ticks/s) ((Tick/Second))
hostMemory                                     643688                       # Number of bytes of host memory used (Byte)
simInsts                                        49550                       # Number of instructions simulated (Count)
simOps                                          90409                       # Number of ops (including micro ops) simulated (Count)
hostInstRate                                   793896                       # Simulator instruction rate (inst/s) ((Count/Second))
hostOpRate                                    1448096                       # Simulator op (including micro ops) rate (op/s) ((Count/Second))
system.clk_domain.clock                          1000                       # Clock period in ticks (Tick)
system.clk_domain.voltage_domain.voltage            1                       # Voltage in Volts (Volt)
system.cpu.numCycles                           195940                       # Number of cpu cycles simulated (Cycle)
system.cpu.numWorkItemsStarted                      0                       # Number of work items this cpu started (Count)
system.cpu.numWorkItemsCompleted                    0                       # Number of work items this cpu completed (Count)
system.cpu.dcache.demandHits::cpu.data           2948                       # number of demand (read+write) hits (Count)
system.cpu.dcache.demandHits::total              2948                       # number of demand (read+write) hits (Count)
system.cpu.dcache.overallHits::cpu.data          2948                       # number of overall hits (Count)
system.cpu.dcache.overallHits::total             2948                       # number of overall hits (Count)
system.cpu.dcache.demandMisses::cpu.data          257                       # number of demand (read+write) misses (Count)
system.cpu.dcache.demandMisses::total             257                       # number of demand (read+write) misses (Count)
system.cpu.dcache.overallMisses::cpu.data          257                       # number of overall misses (Count)
system.cpu.dcache.overallMisses::total            257                       # number of overall misses (Count)
system.cpu.dcache.demandMissLatency::cpu.data     26679000                       # number of demand (read+write) miss ticks (Tick)
system.cpu.dcache.demandMissLatency::total     26679000                       # number of demand (read+write) miss ticks (Tick)
system.cpu.dcache.overallMissLatency::cpu.data     26679000                       # number of overall miss ticks (Tick)
system.cpu.dcache.overallMissLatency::total     26679000                       # number of overall miss ticks (Tick)
system.cpu.dcache.demandAccesses::cpu.data         3205                       # number of demand (read+write) accesses (Count)
system.cpu.dcache.demandAccesses::total          3205                       # number of demand (read+write) accesses (Count)
system.cpu.dcache.overallAccesses::cpu.data         3205                       # number of overall (read+write) accesses (Count)
system.cpu.dcache.overallAccesses::total         3205                       # number of overall (read+write) accesses (Count)
system.cpu.dcache.demandMissRate::cpu.data     0.080187                       # miss rate for demand accesses (Ratio)
system.cpu.dcache.demandMissRate::total      0.080187                       # miss rate for demand accesses (Ratio)
system.cpu.dcache.overallMissRate::cpu.data     0.080187                       # miss rate for overall accesses (Ratio)
system.cpu.dcache.overallMissRate::total     0.080187                       # miss rate for overall accesses (Ratio)
system.cpu.dcache.demandAvgMissLatency::cpu.data 103809.338521                       # average overall miss latency ((Cycle/Count))
system.cpu.dcache.demandAvgMissLatency::total 103809.338521                       # average overall miss latency ((Cycle/Count))
system.cpu.dcache.overallAvgMissLatency::cpu.data 103809.338521                       # average overall miss latency ((Cycle/Count))
system.cpu.dcache.overallAvgMissLatency::total 103809.338521                       # average overall miss latency ((Cycle/Count))
system.cpu.dcache.blockedCycles::no_mshrs            0                       # number of cycles access was blocked (Cycle)
system.cpu.dcache.blockedCycles::no_targets            0                       # number of cycles access was blocked (Cycle)
system.cpu.dcache.blockedCauses::no_mshrs            0                       # number of times access was blocked (Count)
system.cpu.dcache.blockedCauses::no_targets            0                       # number of times access was blocked (Count)
system.cpu.dcache.avgBlocked::no_mshrs            nan                       # average number of cycles each access was blocked ((Cycle/Count))
system.cpu.dcache.avgBlocked::no_targets          nan                       # average number of cycles each access was blocked ((Cycle/Count))
system.cpu.dcache.demandMshrMisses::cpu.data          257                       # number of demand (read+write) MSHR misses (Count)
system.cpu.dcache.demandMshrMisses::total          257                       # number of demand (read+write) MSHR misses (Count)
system.cpu.dcache.overallMshrMisses::cpu.data          257                       # number of overall MSHR misses (Count)
system.cpu.dcache.overallMshrMisses::total          257                       # number of overall MSHR misses (Count)
system.cpu.dcache.demandMshrMissLatency::cpu.data     26165000                       # number of demand (read+write) MSHR miss ticks (Tick)
system.cpu.dcache.demandMshrMissLatency::total     26165000                       # number of demand (read+write) MSHR miss ticks (Tick)
system.cpu.dcache.overallMshrMissLatency::cpu.data     26165000                       # number of overall MSHR miss ticks (Tick)
system.cpu.dcache.overallMshrMissLatency::total     26165000                       # number of overall MSHR miss ticks (Tick)
system.cpu.dcache.demandMshrMissRate::cpu.data     0.080187                       # mshr miss ratio for demand accesses (Ratio)
system.cpu.dcache.demandMshrMissRate::total     0.080187                       # mshr miss ratio for demand accesses (Ratio)
system.cpu.dcache.overallMshrMissRate::cpu.data     0.080187                       # mshr miss ratio for overall accesses (Ratio)
system.cpu.dcache.overallMshrMissRate::total     0.080187                       # mshr miss ratio for overall accesses (Ratio)
system.cpu.dcache.demandAvgMshrMissLatency::cpu.data 101809.338521                       # average overall mshr miss latency ((Cycle/Count))
system.cpu.dcache.demandAvgMshrMissLatency::total 101809.338521                       # average overall mshr miss latency ((Cycle/Count))
system.cpu.dcache.overallAvgMshrMissLatency::cpu.data 101809.338521                       # average overall mshr miss latency ((Cycle/Count))
system.cpu.dcache.overallAvgMshrMissLatency::total 101809.338521                       # average overall mshr miss latency ((Cycle/Count))
system.cpu.dcache.replacements                      0                       # number of replacements (Count)
system.cpu.dcache.ReadReq.hits::cpu.data         1448                       # number of ReadReq hits (Count)
system.cpu.dcache.ReadReq.hits::total            1448                       # number of ReadReq hits (Count)
system.cpu.dcache.ReadReq.misses::cpu.data          112                       # number of ReadReq misses (Count)
system.cpu.dcache.ReadReq.misses::total           112                       # number of ReadReq misses (Count)
system.cpu.dcache.ReadReq.missLatency::cpu.data     12273000                       # number of ReadReq miss ticks (Tick)
system.cpu.dcache.ReadReq.missLatency::total     12273000                       # number of ReadReq miss ticks (Tick)
system.cpu.dcache.ReadReq.accesses::cpu.data         1560                       # number of ReadReq accesses(hits+misses) (Count)
system.cpu.dcache.ReadReq.accesses::total         1560                       # number of ReadReq accesses(hits+misses) (Count)
system.cpu.dcache.ReadReq.missRate::cpu.data     0.071795                       # miss rate for ReadReq accesses (Ratio)
system.cpu.dcache.ReadReq.missRate::total     0.071795                       # miss rate for ReadReq accesses (Ratio)
system.cpu.dcache.ReadReq.avgMissLatency::cpu.data 109580.357143                       # average ReadReq miss latency ((Tick/Count))
system.cpu.dcache.ReadReq.avgMissLatency::total 109580.357143                       # average ReadReq miss latency ((Tick/Count))
system.cpu.dcache.ReadReq.mshrMisses::cpu.data          112                       # number of ReadReq MSHR misses (Count)
system.cpu.dcache.ReadReq.mshrMisses::total          112                       # number of ReadReq MSHR misses (Count)
system.cpu.dcache.ReadReq.mshrMissLatency::cpu.data     12049000                       # number of ReadReq MSHR miss ticks (Tick)
system.cpu.dcache.ReadReq.mshrMissLatency::total     12049000                       # number of ReadReq MSHR miss ticks (Tick)
system.cpu.dcache.ReadReq.mshrMissRate::cpu.data     0.071795                       # mshr miss rate for ReadReq accesses (Ratio)
system.cpu.dcache.ReadReq.mshrMissRate::total     0.071795                       # mshr miss rate for ReadReq accesses (Ratio)
system.cpu.dcache.ReadReq.avgMshrMissLatency::cpu.data 107580.357143                       # average ReadReq mshr miss latency ((Tick/Count))
system.cpu.dcache.ReadReq.avgMshrMissLatency::total 107580.357143                       # average ReadReq mshr miss latency ((Tick/Count))
system.cpu.dcache.WriteReq.hits::cpu.data         1500                       # number of WriteReq hits (Count)
system.cpu.dcache.WriteReq.hits::total           1500                       # number of WriteReq hits (Count)
system.cpu.dcache.WriteReq.misses::cpu.data          145                       # number of WriteReq misses (Count)
system.cpu.dcache.WriteReq.misses::total          145                       # number of WriteReq misses (Count)
system.cpu.dcache.WriteReq.missLatency::cpu.data     14406000                       # number of WriteReq miss ticks (Tick)
system.cpu.dcache.WriteReq.missLatency::total     14406000                       # number of WriteReq miss ticks (Tick)
system.cpu.dcache.WriteReq.accesses::cpu.data         1645                       # number of WriteReq accesses(hits+misses) (Count)
system.cpu.dcache.WriteReq.accesses::total         1645                       # number of WriteReq accesses(hits+misses) (Count)
system.cpu.dcache.WriteReq.missRate::cpu.data     0.088146                       # miss rate for WriteReq accesses (Ratio)
system.cpu.dcache.WriteReq.missRate::total     0.088146                       # miss rate for WriteReq accesses (Ratio)
system.cpu.dcache.WriteReq.avgMissLatency::cpu.data 99351.724138                       # average WriteReq miss latency ((Tick/Count))
system.cpu.dcache.WriteReq.avgMissLatency::total 99351.724138                       # average WriteReq miss latency ((Tick/Count))
system.cpu.dcache.WriteReq.mshrMisses::cpu.data          145                       # number of WriteReq MSHR misses (Count)
system.cpu.dcache.WriteReq.mshrMisses::total          145                       # number of WriteReq MSHR misses (Count)
system.cpu.dcache.WriteReq.mshrMissLatency::cpu.data     14116000                       # number of WriteReq MSHR miss ticks (Tick)
system.cpu.dcache.WriteReq.mshrMissLatency::total     14116000                       # number of WriteReq MSHR miss ticks (Tick)
system.cpu.dcache.WriteReq.mshrMissRate::cpu.data     0.088146                       # mshr miss rate for WriteReq accesses (Ratio)
system.cpu.dcache.WriteReq.mshrMissRate::total     0.088146                       # mshr miss rate for WriteReq accesses (Ratio)
system.cpu.dcache.WriteReq.avgMshrMissLatency::cpu.data 97351.724138                       # average WriteReq mshr miss latency ((Tick/Count))
system.cpu.dcache.WriteReq.avgMshrMissLatency::total 97351.724138                       # average WriteReq mshr miss latency ((Tick/Count))
system.cpu.dcache.power_state.pwrStateResidencyTicks::UNDEFINED    195940000                       # Cumulative time (in ticks) in various power states (Tick)
system.cpu.dcache.tags.tagsInUse           177.150455                       # Average ticks per tags in use ((Tick/Count))
system.cpu.dcache.tags.totalRefs                 3205                       # Total number of references to valid blocks. (Count)
system.cpu.dcache.tags.sampledRefs                233                       # Sample count of references to valid blocks. (Count)
system.cpu.dcache.tags.avgRefs              13.755365                       # Average number of references to valid blocks. ((Count/Count))
system.cpu.dcache.tags.warmupTick              228000                       # The tick when the warmup percentage was hit. (Tick)
system.cpu.dcache.tags.occupancies::cpu.data   177.150455                       # Average occupied blocks per tick, per requestor ((Count/Tick))
system.cpu.dcache.tags.avgOccs::cpu.data     0.172998                       # Average percentage of cache occupancy ((Ratio/Tick))
system.cpu.dcache.tags.avgOccs::total        0.172998                       # Average percentage of cache occupancy ((Ratio/Tick))
system.cpu.dcache.tags.occupanciesTaskId::1024          233                       # Occupied blocks per task id (Count)
system.cpu.dcache.tags.ageTaskId_1024::0           15                       # Occupied blocks per task id, per block age (Count)
system.cpu.dcache.tags.ageTaskId_1024::2          218                       # Occupied blocks per task id, per block age (Count)
system.cpu.dcache.tags.ratioOccsTaskId::1024     0.227539                       # Ratio of occupied blocks and all blocks, per task id (Ratio)
system.cpu.dcache.tags.tagAccesses               6643                       # Number of tag accesses (Count)
system.cpu.dcache.tags.dataAccesses              6643                       # Number of data accesses (Count)
system.cpu.dcache.tags.power_state.pwrStateResidencyTicks::UNDEFINED    195940000                       # Cumulative time (in ticks) in various power states (Tick)
system.cpu.exec_context.thread_0.numInsts        49550                       # Number of instructions committed (Count)
system.cpu.exec_context.thread_0.numOps         90409                       # Number of ops (including micro ops) committed (Count)
system.cpu.exec_context.thread_0.numIntAluAccesses        89630                       # Number of integer alu accesses (Count)
system.cpu.exec_context.thread_0.numFpAluAccesses         1166                       # Number of float alu accesses (Count)
system.cpu.exec_context.thread_0.numVecAluAccesses            0                       # Number of vector alu accesses (Count)
system.cpu.exec_context.thread_0.numCallsReturns          296                       # Number of times a function call or return occured (Count)
system.cpu.exec_context.thread_0.numCondCtrlInsts         9547                       # Number of instructions that are conditional controls (Count)
system.cpu.exec_context.thread_0.numIntInsts        89630                       # Number of integer instructions (Count)
system.cpu.exec_context.thread_0.numFpInsts         1166                       # Number of float instructions (Count)
system.cpu.exec_context.thread_0.numVecInsts            0                       # Number of vector instructions (Count)
system.cpu.exec_context.thread_0.numIntRegReads       145570                       # Number of times the integer registers were read (Count)
system.cpu.exec_context.thread_0.numIntRegWrites        77934                       # Number of times the integer registers were written (Count)
system.cpu.exec_context.thread_0.numFpRegReads         1342                       # Number of times the floating registers were read (Count)
system.cpu.exec_context.thread_0.numFpRegWrites          645                       # Number of times the floating registers were written (Count)
system.cpu.exec_context.thread_0.numVecRegReads            0                       # Number of times the vector registers were read (Count)
system.cpu.exec_context.thread_0.numVecRegWrites            0                       # Number of times the vector registers were written (Count)
system.cpu.exec_context.thread_0.numVecPredRegReads            0                       # Number of times the predicate registers were read (Count)
system.cpu.exec_context.thread_0.numVecPredRegWrites            0                       # Number of times the predicate registers were written (Count)
system.cpu.exec_context.thread_0.numCCRegReads        49974                       # Number of times the CC registers were read (Count)
system.cpu.exec_context.thread_0.numCCRegWrites        38219                       # Number of times the CC registers were written (Count)
system.cpu.exec_context.thread_0.numMemRefs         3205                       # Number of memory refs (Count)
system.cpu.exec_context.thread_0.numLoadInsts         1559                       # Number of load instructions (Count)
system.cpu.exec_context.thread_0.numStoreInsts         1646                       # Number of store instructions (Count)
system.cpu.exec_context.thread_0.numIdleCycles     0.001000                       # Number of idle cycles (Cycle)
system.cpu.exec_context.thread_0.numBusyCycles 195939.999000                       # Number of busy cycles (Cycle)
system.cpu.exec_context.thread_0.notIdleFraction     1.000000                       # Percentage of non-idle cycles (Ratio)
system.cpu.exec_context.thread_0.idleFraction     0.000000                       # Percentage of idle cycles (Ratio)
system.cpu.exec_context.thread_0.numBranches        10000                       # Number of branches fetched (Count)
system.cpu.exec_context.thread_0.statExecutedInstType::No_OpClass          227      0.25%      0.25% # Class of executed instruction. (Count)
system.cpu.exec_context.thread_0.statExecutedInstType::IntAlu        86474     95.63%     95.88% # Class of executed instruction. (Count)
system.cpu.exec_context.thread_0.statExecutedInstType::IntMult            5      0.01%     95.89% # Class of executed instruction. (Count)
system.cpu.exec_context.thread_0.statExecutedInstType::IntDiv           21      0.02%     95.91% # Class of executed instruction. (Count)
system.cpu.exec_context.thread_0.statExecutedInstType::FloatAdd          135      0.15%     96.06% # Class of executed instruction. (Count)
system.cpu.exec_context.thread_0.statExecutedInstType::FloatCmp            0      0.00%     96.06% # Class of executed instruction. (Count)
system.cpu.exec_context.thread_0.statExecutedInstType::FloatCvt            0      0.00%     96.06% # Class of executed instruction. (Count)
system.cpu.exec_context.thread_0.statExecutedInstType::FloatMult            0      0.00%     96.06% # Class of executed instruction. (Count)
system.cpu.exec_context.thread_0.statExecutedInstType::FloatMultAcc            0      0.00%     96.06% # Class of executed instruction. (Count)
system.cpu.exec_context.thread_0.statExecutedInstType::FloatDiv            0      0.00%     96.06% # Class of executed instruction. (Count)
system.cpu.exec_context.thread_0.statExecutedInstType::FloatMisc            0      0.00%     96.06% # Class of executed instruction. (Count)
system.cpu.exec_context.thread_0.statExecutedInstType::FloatSqrt            0      0.00%     96.06% # Class of executed instruction. (Count)
system.cpu.exec_context.thread_0.statExecutedInstType::SimdAdd            0      0.00%     96.06% # Class of executed instruction. (Count)
system.cpu.exec_context.thread_0.statExecutedInstType::SimdAddAcc            0      0.00%     96.06% # Class of executed instruction. (Count)
system.cpu.exec_context.thread_0.statExecutedInstType::SimdAlu           94      0.10%     96.17% # Class of executed instruction. (Count)
system.cpu.exec_context.thread_0.statExecutedInstType::SimdCmp            0      0.00%     96.17% # Class of executed instruction. (Count)
system.cpu.exec_context.thread_0.statExecutedInstType::SimdCvt           46      0.05%     96.22% # Class of executed instruction. (Count)
system.cpu.exec_context.thread_0.statExecutedInstType::SimdMisc          215      0.24%     96.46% # Class of executed instruction. (Count)
system.cpu.exec_context.thread_0.statExecutedInstType::SimdMult            0      0.00%     96.46% # Class of executed instruction. (Count)
system.cpu.exec_context.thread_0.statExecutedInstType::SimdMultAcc            0      0.00%     96.46% # Class of executed instruction. (Count)
system.cpu.exec_context.thread_0.statExecutedInstType::SimdShift            0      0.00%     96.46% # Class of executed instruction. (Count)
system.cpu.exec_context.thread_0.statExecutedInstType::SimdShiftAcc            0      0.00%     96.46% # Class of executed instruction. (Count)
system.cpu.exec_context.thread_0.statExecutedInstType::SimdDiv            0      0.00%     96.46% # Class of executed instruction. (Count)
system.cpu.exec_context.thread_0.statExecutedInstType::SimdSqrt            0      0.00%     96.46% # Class of executed instruction. (Count)
system.cpu.exec_context.thread_0.statExecutedInstType::SimdFloatAdd            0      0.00%     96.46% # Class of executed instruction. (Count)
system.cpu.exec_context.thread_0.statExecutedInstType::SimdFloatAlu            0      0.00%     96.46% # Class of executed instruction. (Count)
system.cpu.exec_context.thread_0.statExecutedInstType::SimdFloatCmp            0      0.00%     96.46% # Class of executed instruction. (Count)
system.cpu.exec_context.thread_0.statExecutedInstType::SimdFloatCvt            0      0.00%     96.46% # Class of executed instruction. (Count)
system.cpu.exec_context.thread_0.statExecutedInstType::SimdFloatDiv            0      0.00%     96.46% # Class of executed instruction. (Count)
system.cpu.exec_context.thread_0.statExecutedInstType::SimdFloatMisc            0      0.00%     96.46% # Class of executed instruction. (Count)
system.cpu.exec_context.thread_0.statExecutedInstType::SimdFloatMult            0      0.00%     96.46% # Class of executed instruction. (Count)
system.cpu.exec_context.thread_0.statExecutedInstType::SimdFloatMultAcc            0      0.00%     96.46% # Class of executed instruction. (Count)
system.cpu.exec_context.thread_0.statExecutedInstType::SimdFloatSqrt            0      0.00%     96.46% # Class of executed instruction. (Count)
system.cpu.exec_context.thread_0.statExecutedInstType::SimdReduceAdd            0      0.00%     96.46% # Class of executed instruction. (Count)
system.cpu.exec_context.thread_0.statExecutedInstType::SimdReduceAlu            0      0.00%     96.46% # Class of executed instruction. (Count)
system.cpu.exec_context.thread_0.statExecutedInstType::SimdReduceCmp            0      0.00%     96.46% # Class of executed instruction. (Count)
system.cpu.exec_context.thread_0.statExecutedInstType::SimdFloatReduceAdd            0      0.00%     96.46% # Class of executed instruction. (Count)
system.cpu.exec_context.thread_0.statExecutedInstType::SimdFloatReduceCmp            0      0.00%     96.46% # Class of executed instruction. (Count)
system.cpu.exec_context.thread_0.statExecutedInstType::SimdAes            0      0.00%     96.46% # Class of executed instruction. (Count)
system.cpu.exec_context.thread_0.statExecutedInstType::SimdAesMix            0      0.00%     96.46% # Class of executed instruction. (Count)
system.cpu.exec_context.thread_0.statExecutedInstType::SimdSha1Hash            0      0.00%     96.46% # Class of executed instruction. (Count)
system.cpu.exec_context.thread_0.statExecutedInstType::SimdSha1Hash2            0      0.00%     96.46% # Class of executed instruction. (Count)
system.cpu.exec_context.thread_0.statExecutedInstType::SimdSha256Hash            0      0.00%     96.46% # Class of executed instruction. (Count)
system.cpu.exec_context.thread_0.statExecutedInstType::SimdSha256Hash2            0      0.00%     96.46% # Class of executed instruction. (Count)
system.cpu.exec_context.thread_0.statExecutedInstType::SimdShaSigma2            0      0.00%     96.46% # Class of executed instruction. (Count)
system.cpu.exec_context.thread_0.statExecutedInstType::SimdShaSigma3            0      0.00%     96.46% # Class of executed instruction. (Count)
system.cpu.exec_context.thread_0.statExecutedInstType::SimdPredAlu            0      0.00%     96.46% # Class of executed instruction. (Count)
system.cpu.exec_context.thread_0.statExecutedInstType::MemRead         1497      1.66%     98.11% # Class of executed instruction. (Count)
system.cpu.exec_context.thread_0.statExecutedInstType::MemWrite         1171      1.30%     99.41% # Class of executed instruction. (Count)
system.cpu.exec_context.thread_0.statExecutedInstType::FloatMemRead           62      0.07%     99.47% # Class of executed instruction. (Count)
system.cpu.exec_context.thread_0.statExecutedInstType::FloatMemWrite          475      0.53%    100.00% # Class of executed instruction. (Count)
system.cpu.exec_context.thread_0.statExecutedInstType::IprAccess            0      0.00%    100.00% # Class of executed instruction. (Count)
system.cpu.exec_context.thread_0.statExecutedInstType::InstPrefetch            0      0.00%    100.00% # Class of executed instruction. (Count)
system.cpu.exec_context.thread_0.statExecutedInstType::total        90422                       # Class of executed instruction. (Count)
system.cpu.icache.demandHits::cpu.inst          60035                       # number of demand (read+write) hits (Count)
system.cpu.icache.demandHits::total             60035                       # number of demand (read+write) hits (Count)
system.cpu.icache.overallHits::cpu.inst         60035                       # number of overall hits (Count)
system.cpu.icache.overallHits::total            60035                       # number of overall hits (Count)
system.cpu.icache.demandMisses::cpu.inst          407                       # number of demand (read+write) misses (Count)
system.cpu.icache.demandMisses::total             407                       # number of demand (read+write) misses (Count)
system.cpu.icache.overallMisses::cpu.inst          407                       # number of overall misses (Count)
system.cpu.icache.overallMisses::total            407                       # number of overall misses (Count)
system.cpu.icache.demandMissLatency::cpu.inst     43299000                       # number of demand (read+write) miss ticks (Tick)
system.cpu.icache.demandMissLatency::total     43299000                       # number of demand (read+write) miss ticks (Tick)
system.cpu.icache.overallMissLatency::cpu.inst     43299000                       # number of overall miss ticks (Tick)
system.cpu.icache.overallMissLatency::total     43299000                       # number of overall miss ticks (Tick)
system.cpu.icache.demandAccesses::cpu.inst        60442                       # number of demand (read+write) accesses (Count)
system.cpu.icache.demandAccesses::total         60442                       # number of demand (read+write) accesses (Count)
system.cpu.icache.overallAccesses::cpu.inst        60442                       # number of overall (read+write) accesses (Count)
system.cpu.icache.overallAccesses::total        60442                       # number of overall (read+write) accesses (Count)
system.cpu.icache.demandMissRate::cpu.inst     0.006734                       # miss rate for demand accesses (Ratio)
system.cpu.icache.demandMissRate::total      0.006734                       # miss rate for demand accesses (Ratio)
system.cpu.icache.overallMissRate::cpu.inst     0.006734                       # miss rate for overall accesses (Ratio)
system.cpu.icache.overallMissRate::total     0.006734                       # miss rate for overall accesses (Ratio)
system.cpu.icache.demandAvgMissLatency::cpu.inst 106385.749386                       # average overall miss latency ((Cycle/Count))
system.cpu.icache.demandAvgMissLatency::total 106385.749386                       # average overall miss latency ((Cycle/Count))
system.cpu.icache.overallAvgMissLatency::cpu.inst 106385.749386                       # average overall miss latency ((Cycle/Count))
system.cpu.icache.overallAvgMissLatency::total 106385.749386                       # average overall miss latency ((Cycle/Count))
system.cpu.icache.blockedCycles::no_mshrs            0                       # number of cycles access was blocked (Cycle)
system.cpu.icache.blockedCycles::no_targets            0                       # number of cycles access was blocked (Cycle)
system.cpu.icache.blockedCauses::no_mshrs            0                       # number of times access was blocked (Count)
system.cpu.icache.blockedCauses::no_targets            0                       # number of times access was blocked (Count)
system.cpu.icache.avgBlocked::no_mshrs            nan                       # average number of cycles each access was blocked ((Cycle/Count))
system.cpu.icache.avgBlocked::no_targets          nan                       # average number of cycles each access was blocked ((Cycle/Count))
system.cpu.icache.demandMshrMisses::cpu.inst          407                       # number of demand (read+write) MSHR misses (Count)
system.cpu.icache.demandMshrMisses::total          407                       # number of demand (read+write) MSHR misses (Count)
system.cpu.icache.overallMshrMisses::cpu.inst          407                       # number of overall MSHR misses (Count)
system.cpu.icache.overallMshrMisses::total          407                       # number of overall MSHR misses (Count)
system.cpu.icache.demandMshrMissLatency::cpu.inst     42485000                       # number of demand (read+write) MSHR miss ticks (Tick)
system.cpu.icache.demandMshrMissLatency::total     42485000                       # number of demand (read+write) MSHR miss ticks (Tick)
system.cpu.icache.overallMshrMissLatency::cpu.inst     42485000                       # number of overall MSHR miss ticks (Tick)
system.cpu.icache.overallMshrMissLatency::total     42485000                       # number of overall MSHR miss ticks (Tick)
system.cpu.icache.demandMshrMissRate::cpu.inst     0.006734                       # mshr miss ratio for demand accesses (Ratio)
system.cpu.icache.demandMshrMissRate::total     0.006734                       # mshr miss ratio for demand accesses (Ratio)
system.cpu.icache.overallMshrMissRate::cpu.inst     0.006734                       # mshr miss ratio for overall accesses (Ratio)
system.cpu.icache.overallMshrMissRate::total     0.006734                       # mshr miss ratio for overall accesses (Ratio)
system.cpu.icache.demandAvgMshrMissLatency::cpu.inst 104385.749386                       # average overall mshr miss latency ((Cycle/Count))
system.cpu.icache.demandAvgMshrMissLatency::total 104385.749386                       # average overall mshr miss latency ((Cycle/Count))
system.cpu.icache.overallAvgMshrMissLatency::cpu.inst 104385.749386                       # average overall mshr miss latency ((Cycle/Count))
system.cpu.icache.overallAvgMshrMissLatency::total 104385.749386                       # average overall mshr miss latency ((Cycle/Count))
system.cpu.icache.replacements                    165                       # number of replacements (Count)
system.cpu.icache.ReadReq.hits::cpu.inst        60035                       # number of ReadReq hits (Count)
system.cpu.icache.ReadReq.hits::total           60035                       # number of ReadReq hits (Count)
system.cpu.icache.ReadReq.misses::cpu.inst          407                       # number of ReadReq misses (Count)
system.cpu.icache.ReadReq.misses::total           407                       # number of ReadReq misses (Count)
system.cpu.icache.ReadReq.missLatency::cpu.inst     43299000                       # number of ReadReq miss ticks (Tick)
system.cpu.icache.ReadReq.missLatency::total     43299000                       # number of ReadReq miss ticks (Tick)
system.cpu.icache.ReadReq.accesses::cpu.inst        60442                       # number of ReadReq accesses(hits+misses) (Count)
system.cpu.icache.ReadReq.accesses::total        60442                       # number of ReadReq accesses(hits+misses) (Count)
system.cpu.icache.ReadReq.missRate::cpu.inst     0.006734                       # miss rate for ReadReq accesses (Ratio)
system.cpu.icache.ReadReq.missRate::total     0.006734                       # miss rate for ReadReq accesses (Ratio)
system.cpu.icache.ReadReq.avgMissLatency::cpu.inst 106385.749386                       # average ReadReq miss latency ((Tick/Count))
system.cpu.icache.ReadReq.avgMissLatency::total 106385.749386                       # average ReadReq miss latency ((Tick/Count))
system.cpu.icache.ReadReq.mshrMisses::cpu.inst          407                       # number of ReadReq MSHR misses (Count)
system.cpu.icache.ReadReq.mshrMisses::total          407                       # number of ReadReq MSHR misses (Count)
system.cpu.icache.ReadReq.mshrMissLatency::cpu.inst     42485000                       # number of ReadReq MSHR miss ticks (Tick)
system.cpu.icache.ReadReq.mshrMissLatency::total     42485000                       # number of ReadReq MSHR miss ticks (Tick)
system.cpu.icache.ReadReq.mshrMissRate::cpu.inst     0.006734                       # mshr miss rate for ReadReq accesses (Ratio)
system.cpu.icache.ReadReq.mshrMissRate::total     0.006734                       # mshr miss rate for ReadReq accesses (Ratio)
system.cpu.icache.ReadReq.avgMshrMissLatency::cpu.inst 104385.749386                       # average ReadReq mshr miss latency ((Tick/Count))
system.cpu.icache.ReadReq.avgMshrMissLatency::total 104385.749386                       # average ReadReq mshr miss latency ((Tick/Count))
system.cpu.icache.power_state.pwrStateResidencyTicks::UNDEFINED    195940000                       # Cumulative time (in ticks) in various power states (Tick)
system.cpu.icache.tags.tagsInUse           193.220940                       # Average ticks per tags in use ((Tick/Count))
system.cpu.icache.tags.totalRefs                60442                       # Total number of references to valid blocks. (Count)
system.cpu.icache.tags.sampledRefs                407                       # Sample count of references to valid blocks. (Count)
system.cpu.icache.tags.avgRefs             148.506143                       # Average number of references to valid blocks. ((Count/Count))
system.cpu.icache.tags.warmupTick              109000                       # The tick when the warmup percentage was hit. (Tick)
system.cpu.icache.tags.occupancies::cpu.inst   193.220940                       # Average occupied blocks per tick, per requestor ((Count/Tick))
system.cpu.icache.tags.avgOccs::cpu.inst     0.754769                       # Average percentage of cache occupancy ((Ratio/Tick))
system.cpu.icache.tags.avgOccs::total        0.754769                       # Average percentage of cache occupancy ((Ratio/Tick))
system.cpu.icache.tags.occupanciesTaskId::1024          242                       # Occupied blocks per task id (Count)
system.cpu.icache.tags.ageTaskId_1024::0           38                       # Occupied blocks per task id, per block age (Count)
system.cpu.icache.tags.ageTaskId_1024::2          204                       # Occupied blocks per task id, per block age (Count)
system.cpu.icache.tags.ratioOccsTaskId::1024     0.945312                       # Ratio of occupied blocks and all blocks, per task id (Ratio)
system.cpu.icache.tags.tagAccesses             121291                       # Number of tag accesses (Count)
system.cpu.icache.tags.dataAccesses            121291                       # Number of data accesses (Count)
system.cpu.icache.tags.power_state.pwrStateResidencyTicks::UNDEFINED    195940000                       # Cumulative time (in ticks) in various power states (Tick)
system.cpu.interrupts.clk_domain.clock          16000                       # Clock period in ticks (Tick)
system.cpu.mmu.dtb.rdAccesses                    1561                       # TLB accesses on read requests (Count)
system.cpu.mmu.dtb.wrAccesses                    1647                       # TLB accesses on write requests (Count)
system.cpu.mmu.dtb.rdMisses                        10                       # TLB misses on read requests (Count)
system.cpu.mmu.dtb.wrMisses                         9                       # TLB misses on write requests (Count)
system.cpu.mmu.dtb.walker.power_state.pwrStateResidencyTicks::UNDEFINED    195940000                       # Cumulative time (in ticks) in various power states (Tick)
system.cpu.mmu.itb.rdAccesses                       0                       # TLB accesses on read requests (Count)
system.cpu.mmu.itb.wrAccesses                   60442                       # TLB accesses on write requests (Count)
system.cpu.mmu.itb.rdMisses                         0                       # TLB misses on read requests (Count)
system.cpu.mmu.itb.wrMisses                        38                       # TLB misses on write requests (Count)
system.cpu.mmu.itb.walker.power_state.pwrStateResidencyTicks::UNDEFINED    195940000                       # Cumulative time (in ticks) in various power states (Tick)
system.cpu.power_state.pwrStateResidencyTicks::ON    195940000                       # Cumulative time (in ticks) in various power states (Tick)
system.cpu.thread_0.numInsts                        0                       # Number of Instructions committed (Count)
system.cpu.thread_0.numOps                          0                       # Number of Ops committed (Count)
system.cpu.thread_0.numMemRefs                      0                       # Number of Memory References (Count)
system.cpu.workload.numSyscalls                    10                       # Number of system calls (Count)
system.l2_victimbus.transDist::ReadResp           519                       # Transaction distribution (Count)
system.l2_victimbus.transDist::WritebackClean          640                       # Transaction distribution (Count)
system.l2_victimbus.transDist::CleanEvict          165                       # Transaction distribution (Count)
system.l2_victimbus.transDist::UpgradeReq           24                       # Transaction distribution (Count)
system.l2_victimbus.transDist::UpgradeResp           24                       # Transaction distribution (Count)
system.l2_victimbus.transDist::ReadExReq          121                       # Transaction distribution (Count)
system.l2_victimbus.transDist::ReadExResp          121                       # Transaction distribution (Count)
system.l2_victimbus.transDist::ReadCleanReq          519                       # Transaction distribution (Count)
system.l2_victimbus.pktCount_system.l2cache.mem_side_port::system.l2_victimcache.cpu_side_port         1493                       # Packet count per connected requestor and responder (Count)
system.l2_victimbus.pktSize_system.l2cache.mem_side_port::system.l2_victimcache.cpu_side_port        40960                       # Cumulative packet size per connected requestor and responder (Byte)
system.l2_victimbus.snoops                        640                       # Total snoops (Count)
system.l2_victimbus.snoopTraffic                40960                       # Total snoop traffic (Byte)
system.l2_victimbus.snoopFanout::samples         1304                       # Request fanout histogram (Count)
system.l2_victimbus.snoopFanout::mean        0.490798                       # Request fanout histogram (Count)
system.l2_victimbus.snoopFanout::stdev       0.500107                       # Request fanout histogram (Count)
system.l2_victimbus.snoopFanout::underflows            0      0.00%      0.00% # Request fanout histogram (Count)
system.l2_victimbus.snoopFanout::0                664     50.92%     50.92% # Request fanout histogram (Count)
system.l2_victimbus.snoopFanout::1                640     49.08%    100.00% # Request fanout histogram (Count)
system.l2_victimbus.snoopFanout::overflows            0      0.00%    100.00% # Request fanout histogram (Count)
system.l2_victimbus.snoopFanout::min_value            0                       # Request fanout histogram (Count)
system.l2_victimbus.snoopFanout::max_value            1                       # Request fanout histogram (Count)
system.l2_victimbus.snoopFanout::total           1304                       # Request fanout histogram (Count)
system.l2_victimbus.power_state.pwrStateResidencyTicks::UNDEFINED    195940000                       # Cumulative time (in ticks) in various power states (Tick)
system.l2_victimbus.reqLayer0.occupancy        829000                       # Layer occupancy (ticks) (Tick)
system.l2_victimbus.reqLayer0.utilization          0.0                       # Layer utilization (Ratio)
system.l2_victimbus.respLayer0.occupancy      1943360                       # Layer occupancy (ticks) (Tick)
system.l2_victimbus.respLayer0.utilization          0.0                       # Layer utilization (Ratio)
system.l2_victimbus.snoop_filter.totRequests          829                       # Total number of requests made to the snoop filter. (Count)
system.l2_victimbus.snoop_filter.hitSingleRequests          189                       # Number of requests hitting in the snoop filter with a single holder of the requested data. (Count)
system.l2_victimbus.snoop_filter.hitMultiRequests            0                       # Number of requests hitting in the snoop filter with multiple (>1) holders of the requested data. (Count)
system.l2_victimbus.snoop_filter.totSnoops          640                       # Total number of snoops made to the snoop filter. (Count)
system.l2_victimbus.snoop_filter.hitSingleSnoops          640                       # Number of snoops hitting in the snoop filter with a single holder of the requested data. (Count)
system.l2_victimbus.snoop_filter.hitMultiSnoops            0                       # Number of snoops hitting in the snoop filter with multiple (>1) holders of the requested data. (Count)
system.l2_victimcache.demandMisses::cpu.inst          407                       # number of demand (read+write) misses (Count)
system.l2_victimcache.demandMisses::cpu.data          233                       # number of demand (read+write) misses (Count)
system.l2_victimcache.demandMisses::total          640                       # number of demand (read+write) misses (Count)
system.l2_victimcache.overallMisses::cpu.inst          407                       # number of overall misses (Count)
system.l2_victimcache.overallMisses::cpu.data          233                       # number of overall misses (Count)
system.l2_victimcache.overallMisses::total          640                       # number of overall misses (Count)
system.l2_victimcache.demandMissLatency::cpu.inst     24170000                       # number of demand (read+write) miss ticks (Tick)
system.l2_victimcache.demandMissLatency::cpu.data     14360000                       # number of demand (read+write) miss ticks (Tick)
system.l2_victimcache.demandMissLatency::total     38530000                       # number of demand (read+write) miss ticks (Tick)
system.l2_victimcache.overallMissLatency::cpu.inst     24170000                       # number of overall miss ticks (Tick)
system.l2_victimcache.overallMissLatency::cpu.data     14360000                       # number of overall miss ticks (Tick)
system.l2_victimcache.overallMissLatency::total     38530000                       # number of overall miss ticks (Tick)
system.l2_victimcache.demandAccesses::cpu.inst          407                       # number of demand (read+write) accesses (Count)
system.l2_victimcache.demandAccesses::cpu.data          233                       # number of demand (read+write) accesses (Count)
system.l2_victimcache.demandAccesses::total          640                       # number of demand (read+write) accesses (Count)
system.l2_victimcache.overallAccesses::cpu.inst          407                       # number of overall (read+write) accesses (Count)
system.l2_victimcache.overallAccesses::cpu.data          233                       # number of overall (read+write) accesses (Count)
system.l2_victimcache.overallAccesses::total          640                       # number of overall (read+write) accesses (Count)
system.l2_victimcache.demandMissRate::cpu.inst            1                       # miss rate for demand accesses (Ratio)
system.l2_victimcache.demandMissRate::cpu.data            1                       # miss rate for demand accesses (Ratio)
system.l2_victimcache.demandMissRate::total            1                       # miss rate for demand accesses (Ratio)
system.l2_victimcache.overallMissRate::cpu.inst            1                       # miss rate for overall accesses (Ratio)
system.l2_victimcache.overallMissRate::cpu.data            1                       # miss rate for overall accesses (Ratio)
system.l2_victimcache.overallMissRate::total            1                       # miss rate for overall accesses (Ratio)
system.l2_victimcache.demandAvgMissLatency::cpu.inst 59385.749386                       # average overall miss latency ((Cycle/Count))
system.l2_victimcache.demandAvgMissLatency::cpu.data 61630.901288                       # average overall miss latency ((Cycle/Count))
system.l2_victimcache.demandAvgMissLatency::total 60203.125000                       # average overall miss latency ((Cycle/Count))
system.l2_victimcache.overallAvgMissLatency::cpu.inst 59385.749386                       # average overall miss latency ((Cycle/Count))
system.l2_victimcache.overallAvgMissLatency::cpu.data 61630.901288                       # average overall miss latency ((Cycle/Count))
system.l2_victimcache.overallAvgMissLatency::total 60203.125000                       # average overall miss latency ((Cycle/Count))
system.l2_victimcache.blockedCycles::no_mshrs            0                       # number of cycles access was blocked (Cycle)
system.l2_victimcache.blockedCycles::no_targets            0                       # number of cycles access was blocked (Cycle)
system.l2_victimcache.blockedCauses::no_mshrs            0                       # number of times access was blocked (Count)
system.l2_victimcache.blockedCauses::no_targets            0                       # number of times access was blocked (Count)
system.l2_victimcache.avgBlocked::no_mshrs          nan                       # average number of cycles each access was blocked ((Cycle/Count))
system.l2_victimcache.avgBlocked::no_targets          nan                       # average number of cycles each access was blocked ((Cycle/Count))
system.l2_victimcache.writebacks::writebacks          640                       # number of writebacks (Count)
system.l2_victimcache.writebacks::total           640                       # number of writebacks (Count)
system.l2_victimcache.demandMshrMisses::cpu.inst          407                       # number of demand (read+write) MSHR misses (Count)
system.l2_victimcache.demandMshrMisses::cpu.data          233                       # number of demand (read+write) MSHR misses (Count)
system.l2_victimcache.demandMshrMisses::total          640                       # number of demand (read+write) MSHR misses (Count)
system.l2_victimcache.overallMshrMisses::cpu.inst          407                       # number of overall MSHR misses (Count)
system.l2_victimcache.overallMshrMisses::cpu.data          233                       # number of overall MSHR misses (Count)
system.l2_victimcache.overallMshrMisses::total          640                       # number of overall MSHR misses (Count)
system.l2_victimcache.demandMshrMissLatency::cpu.inst     24170000                       # number of demand (read+write) MSHR miss ticks (Tick)
system.l2_victimcache.demandMshrMissLatency::cpu.data     14360000                       # number of demand (read+write) MSHR miss ticks (Tick)
system.l2_victimcache.demandMshrMissLatency::total     38530000                       # number of demand (read+write) MSHR miss ticks (Tick)
system.l2_victimcache.overallMshrMissLatency::cpu.inst     24170000                       # number of overall MSHR miss ticks (Tick)
system.l2_victimcache.overallMshrMissLatency::cpu.data     14360000                       # number of overall MSHR miss ticks (Tick)
system.l2_victimcache.overallMshrMissLatency::total     38530000                       # number of overall MSHR miss ticks (Tick)
system.l2_victimcache.demandMshrMissRate::cpu.inst            1                       # mshr miss ratio for demand accesses (Ratio)
system.l2_victimcache.demandMshrMissRate::cpu.data            1                       # mshr miss ratio for demand accesses (Ratio)
system.l2_victimcache.demandMshrMissRate::total            1                       # mshr miss ratio for demand accesses (Ratio)
system.l2_victimcache.overallMshrMissRate::cpu.inst            1                       # mshr miss ratio for overall accesses (Ratio)
system.l2_victimcache.overallMshrMissRate::cpu.data            1                       # mshr miss ratio for overall accesses (Ratio)
system.l2_victimcache.overallMshrMissRate::total            1                       # mshr miss ratio for overall accesses (Ratio)
system.l2_victimcache.demandAvgMshrMissLatency::cpu.inst 59385.749386                       # average overall mshr miss latency ((Cycle/Count))
system.l2_victimcache.demandAvgMshrMissLatency::cpu.data 61630.901288                       # average overall mshr miss latency ((Cycle/Count))
system.l2_victimcache.demandAvgMshrMissLatency::total 60203.125000                       # average overall mshr miss latency ((Cycle/Count))
system.l2_victimcache.overallAvgMshrMissLatency::cpu.inst 59385.749386                       # average overall mshr miss latency ((Cycle/Count))
system.l2_victimcache.overallAvgMshrMissLatency::cpu.data 61630.901288                       # average overall mshr miss latency ((Cycle/Count))
system.l2_victimcache.overallAvgMshrMissLatency::total 60203.125000                       # average overall mshr miss latency ((Cycle/Count))
system.l2_victimcache.replacements                  0                       # number of replacements (Count)
system.l2_victimcache.CleanEvict.mshrMisses::writebacks          165                       # number of CleanEvict MSHR misses (Count)
system.l2_victimcache.CleanEvict.mshrMisses::total          165                       # number of CleanEvict MSHR misses (Count)
system.l2_victimcache.CleanEvict.mshrMissRate::writebacks          inf                       # mshr miss rate for CleanEvict accesses (Ratio)
system.l2_victimcache.CleanEvict.mshrMissRate::total          inf                       # mshr miss rate for CleanEvict accesses (Ratio)
system.l2_victimcache.ReadCleanReq.misses::cpu.inst          407                       # number of ReadCleanReq misses (Count)
system.l2_victimcache.ReadCleanReq.misses::cpu.data          112                       # number of ReadCleanReq misses (Count)
system.l2_victimcache.ReadCleanReq.misses::total          519                       # number of ReadCleanReq misses (Count)
system.l2_victimcache.ReadCleanReq.missLatency::cpu.inst     24170000                       # number of ReadCleanReq miss ticks (Tick)
system.l2_victimcache.ReadCleanReq.missLatency::cpu.data      7009000                       # number of ReadCleanReq miss ticks (Tick)
system.l2_victimcache.ReadCleanReq.missLatency::total     31179000                       # number of ReadCleanReq miss ticks (Tick)
system.l2_victimcache.ReadCleanReq.accesses::cpu.inst          407                       # number of ReadCleanReq accesses(hits+misses) (Count)
system.l2_victimcache.ReadCleanReq.accesses::cpu.data          112                       # number of ReadCleanReq accesses(hits+misses) (Count)
system.l2_victimcache.ReadCleanReq.accesses::total          519                       # number of ReadCleanReq accesses(hits+misses) (Count)
system.l2_victimcache.ReadCleanReq.missRate::cpu.inst            1                       # miss rate for ReadCleanReq accesses (Ratio)
system.l2_victimcache.ReadCleanReq.missRate::cpu.data            1                       # miss rate for ReadCleanReq accesses (Ratio)
system.l2_victimcache.ReadCleanReq.missRate::total            1                       # miss rate for ReadCleanReq accesses (Ratio)
system.l2_victimcache.ReadCleanReq.avgMissLatency::cpu.inst 59385.749386                       # average ReadCleanReq miss latency ((Tick/Count))
system.l2_victimcache.ReadCleanReq.avgMissLatency::cpu.data 62580.357143                       # average ReadCleanReq miss latency ((Tick/Count))
system.l2_victimcache.ReadCleanReq.avgMissLatency::total 60075.144509                       # average ReadCleanReq miss latency ((Tick/Count))
system.l2_victimcache.ReadCleanReq.mshrMisses::cpu.inst          407                       # number of ReadCleanReq MSHR misses (Count)
system.l2_victimcache.ReadCleanReq.mshrMisses::cpu.data          112                       # number of ReadCleanReq MSHR misses (Count)
system.l2_victimcache.ReadCleanReq.mshrMisses::total          519                       # number of ReadCleanReq MSHR misses (Count)
system.l2_victimcache.ReadCleanReq.mshrMissLatency::cpu.inst     24170000                       # number of ReadCleanReq MSHR miss ticks (Tick)
system.l2_victimcache.ReadCleanReq.mshrMissLatency::cpu.data      7009000                       # number of ReadCleanReq MSHR miss ticks (Tick)
system.l2_victimcache.ReadCleanReq.mshrMissLatency::total     31179000                       # number of ReadCleanReq MSHR miss ticks (Tick)
system.l2_victimcache.ReadCleanReq.mshrMissRate::cpu.inst            1                       # mshr miss rate for ReadCleanReq accesses (Ratio)
system.l2_victimcache.ReadCleanReq.mshrMissRate::cpu.data            1                       # mshr miss rate for ReadCleanReq accesses (Ratio)
system.l2_victimcache.ReadCleanReq.mshrMissRate::total            1                       # mshr miss rate for ReadCleanReq accesses (Ratio)
system.l2_victimcache.ReadCleanReq.avgMshrMissLatency::cpu.inst 59385.749386                       # average ReadCleanReq mshr miss latency ((Tick/Count))
system.l2_victimcache.ReadCleanReq.avgMshrMissLatency::cpu.data 62580.357143                       # average ReadCleanReq mshr miss latency ((Tick/Count))
system.l2_victimcache.ReadCleanReq.avgMshrMissLatency::total 60075.144509                       # average ReadCleanReq mshr miss latency ((Tick/Count))
system.l2_victimcache.ReadExReq.misses::cpu.data          121                       # number of ReadExReq misses (Count)
system.l2_victimcache.ReadExReq.misses::total          121                       # number of ReadExReq misses (Count)
system.l2_victimcache.ReadExReq.missLatency::cpu.data      7351000                       # number of ReadExReq miss ticks (Tick)
system.l2_victimcache.ReadExReq.missLatency::total      7351000                       # number of ReadExReq miss ticks (Tick)
system.l2_victimcache.ReadExReq.accesses::cpu.data          121                       # number of ReadExReq accesses(hits+misses) (Count)
system.l2_victimcache.ReadExReq.accesses::total          121                       # number of ReadExReq accesses(hits+misses) (Count)
system.l2_victimcache.ReadExReq.missRate::cpu.data            1                       # miss rate for ReadExReq accesses (Ratio)
system.l2_victimcache.ReadExReq.missRate::total            1                       # miss rate for ReadExReq accesses (Ratio)
system.l2_victimcache.ReadExReq.avgMissLatency::cpu.data 60752.066116                       # average ReadExReq miss latency ((Tick/Count))
system.l2_victimcache.ReadExReq.avgMissLatency::total 60752.066116                       # average ReadExReq miss latency ((Tick/Count))
system.l2_victimcache.ReadExReq.mshrMisses::cpu.data          121                       # number of ReadExReq MSHR misses (Count)
system.l2_victimcache.ReadExReq.mshrMisses::total          121                       # number of ReadExReq MSHR misses (Count)
system.l2_victimcache.ReadExReq.mshrMissLatency::cpu.data      7351000                       # number of ReadExReq MSHR miss ticks (Tick)
system.l2_victimcache.ReadExReq.mshrMissLatency::total      7351000                       # number of ReadExReq MSHR miss ticks (Tick)
system.l2_victimcache.ReadExReq.mshrMissRate::cpu.data            1                       # mshr miss rate for ReadExReq accesses (Ratio)
system.l2_victimcache.ReadExReq.mshrMissRate::total            1                       # mshr miss rate for ReadExReq accesses (Ratio)
system.l2_victimcache.ReadExReq.avgMshrMissLatency::cpu.data 60752.066116                       # average ReadExReq mshr miss latency ((Tick/Count))
system.l2_victimcache.ReadExReq.avgMshrMissLatency::total 60752.066116                       # average ReadExReq mshr miss latency ((Tick/Count))
system.l2_victimcache.UpgradeReq.misses::cpu.data           24                       # number of UpgradeReq misses (Count)
system.l2_victimcache.UpgradeReq.misses::total           24                       # number of UpgradeReq misses (Count)
system.l2_victimcache.UpgradeReq.accesses::cpu.data           24                       # number of UpgradeReq accesses(hits+misses) (Count)
system.l2_victimcache.UpgradeReq.accesses::total           24                       # number of UpgradeReq accesses(hits+misses) (Count)
system.l2_victimcache.UpgradeReq.missRate::cpu.data            1                       # miss rate for UpgradeReq accesses (Ratio)
system.l2_victimcache.UpgradeReq.missRate::total            1                       # miss rate for UpgradeReq accesses (Ratio)
system.l2_victimcache.UpgradeReq.mshrMisses::cpu.data           24                       # number of UpgradeReq MSHR misses (Count)
system.l2_victimcache.UpgradeReq.mshrMisses::total           24                       # number of UpgradeReq MSHR misses (Count)
system.l2_victimcache.UpgradeReq.mshrMissLatency::cpu.data       239976                       # number of UpgradeReq MSHR miss ticks (Tick)
system.l2_victimcache.UpgradeReq.mshrMissLatency::total       239976                       # number of UpgradeReq MSHR miss ticks (Tick)
system.l2_victimcache.UpgradeReq.mshrMissRate::cpu.data            1                       # mshr miss rate for UpgradeReq accesses (Ratio)
system.l2_victimcache.UpgradeReq.mshrMissRate::total            1                       # mshr miss rate for UpgradeReq accesses (Ratio)
system.l2_victimcache.UpgradeReq.avgMshrMissLatency::cpu.data         9999                       # average UpgradeReq mshr miss latency ((Tick/Count))
system.l2_victimcache.UpgradeReq.avgMshrMissLatency::total         9999                       # average UpgradeReq mshr miss latency ((Tick/Count))
system.l2_victimcache.power_state.pwrStateResidencyTicks::UNDEFINED    195940000                       # Cumulative time (in ticks) in various power states (Tick)
system.l2_victimcache.tags.tagsInUse                0                       # Average ticks per tags in use ((Tick/Count))
system.l2_victimcache.tags.totalRefs                0                       # Total number of references to valid blocks. (Count)
system.l2_victimcache.tags.sampledRefs              0                       # Sample count of references to valid blocks. (Count)
system.l2_victimcache.tags.avgRefs                nan                       # Average number of references to valid blocks. ((Count/Count))
system.l2_victimcache.tags.warmupTick               0                       # The tick when the warmup percentage was hit. (Tick)
system.l2_victimcache.tags.tagAccesses          53056                       # Number of tag accesses (Count)
system.l2_victimcache.tags.dataAccesses         53056                       # Number of data accesses (Count)
system.l2_victimcache.tags.power_state.pwrStateResidencyTicks::UNDEFINED    195940000                       # Cumulative time (in ticks) in various power states (Tick)
system.l2bus.transDist::ReadResp                  519                       # Transaction distribution (Count)
system.l2bus.transDist::WritebackClean            640                       # Transaction distribution (Count)
system.l2bus.transDist::CleanEvict                165                       # Transaction distribution (Count)
system.l2bus.transDist::UpgradeReq                 24                       # Transaction distribution (Count)
system.l2bus.transDist::UpgradeResp                24                       # Transaction distribution (Count)
system.l2bus.transDist::ReadExReq                 121                       # Transaction distribution (Count)
system.l2bus.transDist::ReadExResp                121                       # Transaction distribution (Count)
system.l2bus.transDist::ReadSharedReq             519                       # Transaction distribution (Count)
system.l2bus.pktCount_system.cpu.icache.mem_side_port::system.l2cache.cpu_side_port          979                       # Packet count per connected requestor and responder (Count)
system.l2bus.pktCount_system.cpu.dcache.mem_side_port::system.l2cache.cpu_side_port          514                       # Packet count per connected requestor and responder (Count)
system.l2bus.pktCount::total                     1493                       # Packet count per connected requestor and responder (Count)
system.l2bus.pktSize_system.cpu.icache.mem_side_port::system.l2cache.cpu_side_port        26048                       # Cumulative packet size per connected requestor and responder (Byte)
system.l2bus.pktSize_system.cpu.dcache.mem_side_port::system.l2cache.cpu_side_port        14912                       # Cumulative packet size per connected requestor and responder (Byte)
system.l2bus.pktSize::total                     40960                       # Cumulative packet size per connected requestor and responder (Byte)
system.l2bus.snoops                               640                       # Total snoops (Count)
system.l2bus.snoopTraffic                       40960                       # Total snoop traffic (Byte)
system.l2bus.snoopFanout::samples                1304                       # Request fanout histogram (Count)
system.l2bus.snoopFanout::mean               0.490798                       # Request fanout histogram (Count)
system.l2bus.snoopFanout::stdev              0.500107                       # Request fanout histogram (Count)
system.l2bus.snoopFanout::underflows                0      0.00%      0.00% # Request fanout histogram (Count)
system.l2bus.snoopFanout::0                       664     50.92%     50.92% # Request fanout histogram (Count)
system.l2bus.snoopFanout::1                       640     49.08%    100.00% # Request fanout histogram (Count)
system.l2bus.snoopFanout::2                         0      0.00%    100.00% # Request fanout histogram (Count)
system.l2bus.snoopFanout::overflows                 0      0.00%    100.00% # Request fanout histogram (Count)
system.l2bus.snoopFanout::min_value                 0                       # Request fanout histogram (Count)
system.l2bus.snoopFanout::max_value                 1                       # Request fanout histogram (Count)
system.l2bus.snoopFanout::total                  1304                       # Request fanout histogram (Count)
system.l2bus.power_state.pwrStateResidencyTicks::UNDEFINED    195940000                       # Cumulative time (in ticks) in various power states (Tick)
system.l2bus.reqLayer0.occupancy               829000                       # Layer occupancy (ticks) (Tick)
system.l2bus.reqLayer0.utilization                0.0                       # Layer utilization (Ratio)
system.l2bus.respLayer0.occupancy             1221000                       # Layer occupancy (ticks) (Tick)
system.l2bus.respLayer0.utilization               0.0                       # Layer utilization (Ratio)
system.l2bus.respLayer1.occupancy              723000                       # Layer occupancy (ticks) (Tick)
system.l2bus.respLayer1.utilization               0.0                       # Layer utilization (Ratio)
system.l2bus.snoop_filter.totRequests             829                       # Total number of requests made to the snoop filter. (Count)
system.l2bus.snoop_filter.hitSingleRequests          189                       # Number of requests hitting in the snoop filter with a single holder of the requested data. (Count)
system.l2bus.snoop_filter.hitMultiRequests            0                       # Number of requests hitting in the snoop filter with multiple (>1) holders of the requested data. (Count)
system.l2bus.snoop_filter.totSnoops               640                       # Total number of snoops made to the snoop filter. (Count)
system.l2bus.snoop_filter.hitSingleSnoops          640                       # Number of snoops hitting in the snoop filter with a single holder of the requested data. (Count)
system.l2bus.snoop_filter.hitMultiSnoops            0                       # Number of snoops hitting in the snoop filter with multiple (>1) holders of the requested data. (Count)
system.l2cache.demandMisses::cpu.inst             407                       # number of demand (read+write) misses (Count)
system.l2cache.demandMisses::cpu.data             233                       # number of demand (read+write) misses (Count)
system.l2cache.demandMisses::total                640                       # number of demand (read+write) misses (Count)
system.l2cache.overallMisses::cpu.inst            407                       # number of overall misses (Count)
system.l2cache.overallMisses::cpu.data            233                       # number of overall misses (Count)
system.l2cache.overallMisses::total               640                       # number of overall misses (Count)
system.l2cache.demandMissLatency::cpu.inst     41264000                       # number of demand (read+write) miss ticks (Tick)
system.l2cache.demandMissLatency::cpu.data     24146000                       # number of demand (read+write) miss ticks (Tick)
system.l2cache.demandMissLatency::total      65410000                       # number of demand (read+write) miss ticks (Tick)
system.l2cache.overallMissLatency::cpu.inst     41264000                       # number of overall miss ticks (Tick)
system.l2cache.overallMissLatency::cpu.data     24146000                       # number of overall miss ticks (Tick)
system.l2cache.overallMissLatency::total     65410000                       # number of overall miss ticks (Tick)
system.l2cache.demandAccesses::cpu.inst           407                       # number of demand (read+write) accesses (Count)
system.l2cache.demandAccesses::cpu.data           233                       # number of demand (read+write) accesses (Count)
system.l2cache.demandAccesses::total              640                       # number of demand (read+write) accesses (Count)
system.l2cache.overallAccesses::cpu.inst          407                       # number of overall (read+write) accesses (Count)
system.l2cache.overallAccesses::cpu.data          233                       # number of overall (read+write) accesses (Count)
system.l2cache.overallAccesses::total             640                       # number of overall (read+write) accesses (Count)
system.l2cache.demandMissRate::cpu.inst             1                       # miss rate for demand accesses (Ratio)
system.l2cache.demandMissRate::cpu.data             1                       # miss rate for demand accesses (Ratio)
system.l2cache.demandMissRate::total                1                       # miss rate for demand accesses (Ratio)
system.l2cache.overallMissRate::cpu.inst            1                       # miss rate for overall accesses (Ratio)
system.l2cache.overallMissRate::cpu.data            1                       # miss rate for overall accesses (Ratio)
system.l2cache.overallMissRate::total               1                       # miss rate for overall accesses (Ratio)
system.l2cache.demandAvgMissLatency::cpu.inst 101385.749386                       # average overall miss latency ((Cycle/Count))
system.l2cache.demandAvgMissLatency::cpu.data 103630.901288                       # average overall miss latency ((Cycle/Count))
system.l2cache.demandAvgMissLatency::total 102203.125000                       # average overall miss latency ((Cycle/Count))
system.l2cache.overallAvgMissLatency::cpu.inst 101385.749386                       # average overall miss latency ((Cycle/Count))
system.l2cache.overallAvgMissLatency::cpu.data 103630.901288                       # average overall miss latency ((Cycle/Count))
system.l2cache.overallAvgMissLatency::total 102203.125000                       # average overall miss latency ((Cycle/Count))
system.l2cache.blockedCycles::no_mshrs              0                       # number of cycles access was blocked (Cycle)
system.l2cache.blockedCycles::no_targets            0                       # number of cycles access was blocked (Cycle)
system.l2cache.blockedCauses::no_mshrs              0                       # number of times access was blocked (Count)
system.l2cache.blockedCauses::no_targets            0                       # number of times access was blocked (Count)
system.l2cache.avgBlocked::no_mshrs               nan                       # average number of cycles each access was blocked ((Cycle/Count))
system.l2cache.avgBlocked::no_targets             nan                       # average number of cycles each access was blocked ((Cycle/Count))
system.l2cache.writebacks::writebacks             640                       # number of writebacks (Count)
system.l2cache.writebacks::total                  640                       # number of writebacks (Count)
system.l2cache.demandMshrMisses::cpu.inst          407                       # number of demand (read+write) MSHR misses (Count)
system.l2cache.demandMshrMisses::cpu.data          233                       # number of demand (read+write) MSHR misses (Count)
system.l2cache.demandMshrMisses::total            640                       # number of demand (read+write) MSHR misses (Count)
system.l2cache.overallMshrMisses::cpu.inst          407                       # number of overall MSHR misses (Count)
system.l2cache.overallMshrMisses::cpu.data          233                       # number of overall MSHR misses (Count)
system.l2cache.overallMshrMisses::total           640                       # number of overall MSHR misses (Count)
system.l2cache.demandMshrMissLatency::cpu.inst     33124000                       # number of demand (read+write) MSHR miss ticks (Tick)
system.l2cache.demandMshrMissLatency::cpu.data     19486000                       # number of demand (read+write) MSHR miss ticks (Tick)
system.l2cache.demandMshrMissLatency::total     52610000                       # number of demand (read+write) MSHR miss ticks (Tick)
system.l2cache.overallMshrMissLatency::cpu.inst     33124000                       # number of overall MSHR miss ticks (Tick)
system.l2cache.overallMshrMissLatency::cpu.data     19486000                       # number of overall MSHR miss ticks (Tick)
system.l2cache.overallMshrMissLatency::total     52610000                       # number of overall MSHR miss ticks (Tick)
system.l2cache.demandMshrMissRate::cpu.inst            1                       # mshr miss ratio for demand accesses (Ratio)
system.l2cache.demandMshrMissRate::cpu.data            1                       # mshr miss ratio for demand accesses (Ratio)
system.l2cache.demandMshrMissRate::total            1                       # mshr miss ratio for demand accesses (Ratio)
system.l2cache.overallMshrMissRate::cpu.inst            1                       # mshr miss ratio for overall accesses (Ratio)
system.l2cache.overallMshrMissRate::cpu.data            1                       # mshr miss ratio for overall accesses (Ratio)
system.l2cache.overallMshrMissRate::total            1                       # mshr miss ratio for overall accesses (Ratio)
system.l2cache.demandAvgMshrMissLatency::cpu.inst 81385.749386                       # average overall mshr miss latency ((Cycle/Count))
system.l2cache.demandAvgMshrMissLatency::cpu.data 83630.901288                       # average overall mshr miss latency ((Cycle/Count))
system.l2cache.demandAvgMshrMissLatency::total 82203.125000                       # average overall mshr miss latency ((Cycle/Count))
system.l2cache.overallAvgMshrMissLatency::cpu.inst 81385.749386                       # average overall mshr miss latency ((Cycle/Count))
system.l2cache.overallAvgMshrMissLatency::cpu.data 83630.901288                       # average overall mshr miss latency ((Cycle/Count))
system.l2cache.overallAvgMshrMissLatency::total 82203.125000                       # average overall mshr miss latency ((Cycle/Count))
system.l2cache.replacements                         0                       # number of replacements (Count)
system.l2cache.CleanEvict.mshrMisses::writebacks          165                       # number of CleanEvict MSHR misses (Count)
system.l2cache.CleanEvict.mshrMisses::total          165                       # number of CleanEvict MSHR misses (Count)
system.l2cache.CleanEvict.mshrMissRate::writebacks          inf                       # mshr miss rate for CleanEvict accesses (Ratio)
system.l2cache.CleanEvict.mshrMissRate::total          inf                       # mshr miss rate for CleanEvict accesses (Ratio)
system.l2cache.ReadExReq.misses::cpu.data          121                       # number of ReadExReq misses (Count)
system.l2cache.ReadExReq.misses::total            121                       # number of ReadExReq misses (Count)
system.l2cache.ReadExReq.missLatency::cpu.data     12433000                       # number of ReadExReq miss ticks (Tick)
system.l2cache.ReadExReq.missLatency::total     12433000                       # number of ReadExReq miss ticks (Tick)
system.l2cache.ReadExReq.accesses::cpu.data          121                       # number of ReadExReq accesses(hits+misses) (Count)
system.l2cache.ReadExReq.accesses::total          121                       # number of ReadExReq accesses(hits+misses) (Count)
system.l2cache.ReadExReq.missRate::cpu.data            1                       # miss rate for ReadExReq accesses (Ratio)
system.l2cache.ReadExReq.missRate::total            1                       # miss rate for ReadExReq accesses (Ratio)
system.l2cache.ReadExReq.avgMissLatency::cpu.data 102752.066116                       # average ReadExReq miss latency ((Tick/Count))
system.l2cache.ReadExReq.avgMissLatency::total 102752.066116                       # average ReadExReq miss latency ((Tick/Count))
system.l2cache.ReadExReq.mshrMisses::cpu.data          121                       # number of ReadExReq MSHR misses (Count)
system.l2cache.ReadExReq.mshrMisses::total          121                       # number of ReadExReq MSHR misses (Count)
system.l2cache.ReadExReq.mshrMissLatency::cpu.data     10013000                       # number of ReadExReq MSHR miss ticks (Tick)
system.l2cache.ReadExReq.mshrMissLatency::total     10013000                       # number of ReadExReq MSHR miss ticks (Tick)
system.l2cache.ReadExReq.mshrMissRate::cpu.data            1                       # mshr miss rate for ReadExReq accesses (Ratio)
system.l2cache.ReadExReq.mshrMissRate::total            1                       # mshr miss rate for ReadExReq accesses (Ratio)
system.l2cache.ReadExReq.avgMshrMissLatency::cpu.data 82752.066116                       # average ReadExReq mshr miss latency ((Tick/Count))
system.l2cache.ReadExReq.avgMshrMissLatency::total 82752.066116                       # average ReadExReq mshr miss latency ((Tick/Count))
system.l2cache.ReadSharedReq.misses::cpu.inst          407                       # number of ReadSharedReq misses (Count)
system.l2cache.ReadSharedReq.misses::cpu.data          112                       # number of ReadSharedReq misses (Count)
system.l2cache.ReadSharedReq.misses::total          519                       # number of ReadSharedReq misses (Count)
system.l2cache.ReadSharedReq.missLatency::cpu.inst     41264000                       # number of ReadSharedReq miss ticks (Tick)
system.l2cache.ReadSharedReq.missLatency::cpu.data     11713000                       # number of ReadSharedReq miss ticks (Tick)
system.l2cache.ReadSharedReq.missLatency::total     52977000                       # number of ReadSharedReq miss ticks (Tick)
system.l2cache.ReadSharedReq.accesses::cpu.inst          407                       # number of ReadSharedReq accesses(hits+misses) (Count)
system.l2cache.ReadSharedReq.accesses::cpu.data          112                       # number of ReadSharedReq accesses(hits+misses) (Count)
system.l2cache.ReadSharedReq.accesses::total          519                       # number of ReadSharedReq accesses(hits+misses) (Count)
system.l2cache.ReadSharedReq.missRate::cpu.inst            1                       # miss rate for ReadSharedReq accesses (Ratio)
system.l2cache.ReadSharedReq.missRate::cpu.data            1                       # miss rate for ReadSharedReq accesses (Ratio)
system.l2cache.ReadSharedReq.missRate::total            1                       # miss rate for ReadSharedReq accesses (Ratio)
system.l2cache.ReadSharedReq.avgMissLatency::cpu.inst 101385.749386                       # average ReadSharedReq miss latency ((Tick/Count))
system.l2cache.ReadSharedReq.avgMissLatency::cpu.data 104580.357143                       # average ReadSharedReq miss latency ((Tick/Count))
system.l2cache.ReadSharedReq.avgMissLatency::total 102075.144509                       # average ReadSharedReq miss latency ((Tick/Count))
system.l2cache.ReadSharedReq.mshrMisses::cpu.inst          407                       # number of ReadSharedReq MSHR misses (Count)
system.l2cache.ReadSharedReq.mshrMisses::cpu.data          112                       # number of ReadSharedReq MSHR misses (Count)
system.l2cache.ReadSharedReq.mshrMisses::total          519                       # number of ReadSharedReq MSHR misses (Count)
system.l2cache.ReadSharedReq.mshrMissLatency::cpu.inst     33124000                       # number of ReadSharedReq MSHR miss ticks (Tick)
system.l2cache.ReadSharedReq.mshrMissLatency::cpu.data      9473000                       # number of ReadSharedReq MSHR miss ticks (Tick)
system.l2cache.ReadSharedReq.mshrMissLatency::total     42597000                       # number of ReadSharedReq MSHR miss ticks (Tick)
system.l2cache.ReadSharedReq.mshrMissRate::cpu.inst            1                       # mshr miss rate for ReadSharedReq accesses (Ratio)
system.l2cache.ReadSharedReq.mshrMissRate::cpu.data            1                       # mshr miss rate for ReadSharedReq accesses (Ratio)
[...]
system.mem_ctrl.dram.bytesRead::cpu.inst        26048                       # Number of bytes read from this memory (Byte)
system.mem_ctrl.dram.bytesRead::cpu.data        14912                       # Number of bytes read from this memory (Byte)
system.mem_ctrl.dram.bytesRead::total           40960                       # Number of bytes read from this memory (Byte)
system.mem_ctrl.dram.bytesInstRead::cpu.inst        26048                       # Number of instructions bytes read from this memory (Byte)
system.mem_ctrl.dram.bytesInstRead::total        26048                       # Number of instructions bytes read from this memory (Byte)
system.mem_ctrl.dram.numReads::cpu.inst           407                       # Number of read requests responded to by this memory (Count)
system.mem_ctrl.dram.numReads::cpu.data           233                       # Number of read requests responded to by this memory (Count)
system.mem_ctrl.dram.numReads::total              640                       # Number of read requests responded to by this memory (Count)
system.mem_ctrl.dram.bwRead::cpu.inst       132938655                       # Total read bandwidth from this memory ((Byte/Second))
system.mem_ctrl.dram.bwRead::cpu.data        76104930                       # Total read bandwidth from this memory ((Byte/Second))
system.mem_ctrl.dram.bwRead::total          209043585                       # Total read bandwidth from this memory ((Byte/Second))
system.mem_ctrl.dram.bwInstRead::cpu.inst    132938655                       # Instruction read bandwidth from this memory ((Byte/Second))
system.mem_ctrl.dram.bwInstRead::total      132938655                       # Instruction read bandwidth from this memory ((Byte/Second))
system.mem_ctrl.dram.bwTotal::cpu.inst      132938655                       # Total bandwidth to/from this memory ((Byte/Second))
system.mem_ctrl.dram.bwTotal::cpu.data       76104930                       # Total bandwidth to/from this memory ((Byte/Second))
system.mem_ctrl.dram.bwTotal::total         209043585                       # Total bandwidth to/from this memory ((Byte/Second))
system.mem_ctrl.dram.readBursts                   640                       # Number of DRAM read bursts (Count)
system.mem_ctrl.dram.writeBursts                    0                       # Number of DRAM write bursts (Count)
system.mem_ctrl.dram.perBankRdBursts::0            27                       # Per bank write bursts (Count)
system.mem_ctrl.dram.perBankRdBursts::1            57                       # Per bank write bursts (Count)
system.mem_ctrl.dram.perBankRdBursts::2           104                       # Per bank write bursts (Count)
system.mem_ctrl.dram.perBankRdBursts::3            86                       # Per bank write bursts (Count)
system.mem_ctrl.dram.perBankRdBursts::4            84                       # Per bank write bursts (Count)
system.mem_ctrl.dram.perBankRdBursts::5            32                       # Per bank write bursts (Count)
system.mem_ctrl.dram.perBankRdBursts::6            40                       # Per bank write bursts (Count)
system.mem_ctrl.dram.perBankRdBursts::7             7                       # Per bank write bursts (Count)
system.mem_ctrl.dram.perBankRdBursts::8            10                       # Per bank write bursts (Count)
system.mem_ctrl.dram.perBankRdBursts::9            73                       # Per bank write bursts (Count)
system.mem_ctrl.dram.perBankRdBursts::10           22                       # Per bank write bursts (Count)
system.mem_ctrl.dram.perBankRdBursts::11           21                       # Per bank write bursts (Count)
system.mem_ctrl.dram.perBankRdBursts::12            7                       # Per bank write bursts (Count)
system.mem_ctrl.dram.perBankRdBursts::13            9                       # Per bank write bursts (Count)
system.mem_ctrl.dram.perBankRdBursts::14           14                       # Per bank write bursts (Count)
system.mem_ctrl.dram.perBankRdBursts::15           47                       # Per bank write bursts (Count)
system.mem_ctrl.dram.perBankWrBursts::0             0                       # Per bank write bursts (Count)
system.mem_ctrl.dram.perBankWrBursts::1             0                       # Per bank write bursts (Count)
system.mem_ctrl.dram.perBankWrBursts::2             0                       # Per bank write bursts (Count)
system.mem_ctrl.dram.perBankWrBursts::3             0                       # Per bank write bursts (Count)
system.mem_ctrl.dram.perBankWrBursts::4             0                       # Per bank write bursts (Count)
system.mem_ctrl.dram.perBankWrBursts::5             0                       # Per bank write bursts (Count)
system.mem_ctrl.dram.perBankWrBursts::6             0                       # Per bank write bursts (Count)
system.mem_ctrl.dram.perBankWrBursts::7             0                       # Per bank write bursts (Count)
system.mem_ctrl.dram.perBankWrBursts::8             0                       # Per bank write bursts (Count)
system.mem_ctrl.dram.perBankWrBursts::9             0                       # Per bank write bursts (Count)
system.mem_ctrl.dram.perBankWrBursts::10            0                       # Per bank write bursts (Count)
system.mem_ctrl.dram.perBankWrBursts::11            0                       # Per bank write bursts (Count)
system.mem_ctrl.dram.perBankWrBursts::12            0                       # Per bank write bursts (Count)
system.mem_ctrl.dram.perBankWrBursts::13            0                       # Per bank write bursts (Count)
system.mem_ctrl.dram.perBankWrBursts::14            0                       # Per bank write bursts (Count)
system.mem_ctrl.dram.perBankWrBursts::15            0                       # Per bank write bursts (Count)
system.mem_ctrl.dram.totQLat                  6457488                       # Total ticks spent queuing (Tick)
system.mem_ctrl.dram.totBusLat                3200000                       # Total ticks spent in databus transfers (Tick)
system.mem_ctrl.dram.totMemAccLat            18457488                       # Total ticks spent from burst creation until serviced by the DRAM (Tick)
system.mem_ctrl.dram.avgQLat                 10089.83                       # Average queueing delay per DRAM burst ((Tick/Count))
system.mem_ctrl.dram.avgBusLat                5000.00                       # Average bus latency per DRAM burst ((Tick/Count))
system.mem_ctrl.dram.avgMemAccLat            28839.83                       # Average memory access latency per DRAM burst ((Tick/Count))
system.mem_ctrl.dram.readRowHits                  437                       # Number of row buffer hits during reads (Count)
system.mem_ctrl.dram.writeRowHits                   0                       # Number of row buffer hits during writes (Count)
system.mem_ctrl.dram.readRowHitRate             68.28                       # Row buffer hit rate for reads (Ratio)
system.mem_ctrl.dram.writeRowHitRate              nan                       # Row buffer hit rate for writes (Ratio)
system.mem_ctrl.dram.bytesPerActivate::samples          199                       # Bytes accessed per row activation (Byte)
system.mem_ctrl.dram.bytesPerActivate::mean   203.577889                       # Bytes accessed per row activation (Byte)
system.mem_ctrl.dram.bytesPerActivate::gmean   133.272969                       # Bytes accessed per row activation (Byte)
system.mem_ctrl.dram.bytesPerActivate::stdev   237.361385                       # Bytes accessed per row activation (Byte)
system.mem_ctrl.dram.bytesPerActivate::0-127           89     44.72%     44.72% # Bytes accessed per row activation (Byte)
system.mem_ctrl.dram.bytesPerActivate::128-255           66     33.17%     77.89% # Bytes accessed per row activation (Byte)
system.mem_ctrl.dram.bytesPerActivate::256-383           17      8.54%     86.43% # Bytes accessed per row activation (Byte)
system.mem_ctrl.dram.bytesPerActivate::384-511            6      3.02%     89.45% # Bytes accessed per row activation (Byte)
system.mem_ctrl.dram.bytesPerActivate::512-639            2      1.01%     90.45% # Bytes accessed per row activation (Byte)
system.mem_ctrl.dram.bytesPerActivate::640-767            6      3.02%     93.47% # Bytes accessed per row activation (Byte)
system.mem_ctrl.dram.bytesPerActivate::768-895            3      1.51%     94.97% # Bytes accessed per row activation (Byte)
system.mem_ctrl.dram.bytesPerActivate::896-1023            4      2.01%     96.98% # Bytes accessed per row activation (Byte)
system.mem_ctrl.dram.bytesPerActivate::1024-1151            6      3.02%    100.00% # Bytes accessed per row activation (Byte)
system.mem_ctrl.dram.bytesPerActivate::total          199                       # Bytes accessed per row activation (Byte)
system.mem_ctrl.dram.bytesRead                  40960                       # Total number of bytes read from DRAM (Byte)
system.mem_ctrl.dram.bytesWritten                   0                       # Total number of bytes written to DRAM (Byte)
system.mem_ctrl.dram.avgRdBW               209.043585                       # Average DRAM read bandwidth in MiBytes/s ((Byte/Second))
system.mem_ctrl.dram.avgWrBW                        0                       # Average DRAM write bandwidth in MiBytes/s ((Byte/Second))
system.mem_ctrl.dram.peakBW                  12800.00                       # Theoretical peak bandwidth in MiByte/s ((Byte/Second))
system.mem_ctrl.dram.busUtil                     1.63                       # Data bus utilization in percentage (Ratio)
system.mem_ctrl.dram.busUtilRead                 1.63                       # Data bus utilization in percentage for reads (Ratio)
system.mem_ctrl.dram.busUtilWrite                0.00                       # Data bus utilization in percentage for writes (Ratio)
system.mem_ctrl.dram.pageHitRate                68.28                       # Row buffer hit rate, read and write combined (Ratio)
system.mem_ctrl.dram.power_state.pwrStateResidencyTicks::UNDEFINED    195940000                       # Cumulative time (in ticks) in various power states (Tick)
system.mem_ctrl.dram.rank0.actEnergy          1078140                       # Energy for activate commands per rank (pJ) (Joule)
system.mem_ctrl.dram.rank0.preEnergy           565455                       # Energy for precharge commands per rank (pJ) (Joule)
system.mem_ctrl.dram.rank0.readEnergy         3120180                       # Energy for read commands per rank (pJ) (Joule)
system.mem_ctrl.dram.rank0.writeEnergy              0                       # Energy for write commands per rank (pJ) (Joule)
system.mem_ctrl.dram.rank0.refreshEnergy 15366000.000000                       # Energy for refresh commands per rank (pJ) (Joule)
system.mem_ctrl.dram.rank0.actBackEnergy     44070690                       # Energy for active background per rank (pJ) (Joule)
system.mem_ctrl.dram.rank0.preBackEnergy     38128800                       # Energy for precharge background per rank (pJ) (Joule)
system.mem_ctrl.dram.rank0.actPowerDownEnergy            0                       # Energy for active power-down per rank (pJ) (Joule)
system.mem_ctrl.dram.rank0.prePowerDownEnergy            0                       # Energy for precharge power-down per rank (pJ) (Joule)
system.mem_ctrl.dram.rank0.selfRefreshEnergy            0                       # Energy for self refresh per rank (pJ) (Joule)
system.mem_ctrl.dram.rank0.totalEnergy      102329265                       # Total energy per rank (pJ) (Joule)
system.mem_ctrl.dram.rank0.averagePower    522.247959                       # Core power per rank (mW) (Watt)
system.mem_ctrl.dram.rank0.totalIdleTime            0                       # Total Idle time Per DRAM Rank (Tick)
system.mem_ctrl.dram.rank0.pwrStateTime::IDLE     98628506                       # Time in different power states (Tick)
system.mem_ctrl.dram.rank0.pwrStateTime::REF      6500000                       # Time in different power states (Tick)
system.mem_ctrl.dram.rank0.pwrStateTime::SREF            0                       # Time in different power states (Tick)
system.mem_ctrl.dram.rank0.pwrStateTime::PRE_PDN            0                       # Time in different power states (Tick)
system.mem_ctrl.dram.rank0.pwrStateTime::ACT     90811494                       # Time in different power states (Tick)
system.mem_ctrl.dram.rank0.pwrStateTime::ACT_PDN            0                       # Time in different power states (Tick)
system.mem_ctrl.dram.rank1.actEnergy           371280                       # Energy for activate commands per rank (pJ) (Joule)
system.mem_ctrl.dram.rank1.preEnergy           189750                       # Energy for precharge commands per rank (pJ) (Joule)
system.mem_ctrl.dram.rank1.readEnergy         1449420                       # Energy for read commands per rank (pJ) (Joule)
system.mem_ctrl.dram.rank1.writeEnergy              0                       # Energy for write commands per rank (pJ) (Joule)
system.mem_ctrl.dram.rank1.refreshEnergy 15366000.000000                       # Energy for refresh commands per rank (pJ) (Joule)
system.mem_ctrl.dram.rank1.actBackEnergy     42837780                       # Energy for active background per rank (pJ) (Joule)
system.mem_ctrl.dram.rank1.preBackEnergy     39167040                       # Energy for precharge background per rank (pJ) (Joule)
system.mem_ctrl.dram.rank1.actPowerDownEnergy            0                       # Energy for active power-down per rank (pJ) (Joule)
system.mem_ctrl.dram.rank1.prePowerDownEnergy            0                       # Energy for precharge power-down per rank (pJ) (Joule)
system.mem_ctrl.dram.rank1.selfRefreshEnergy            0                       # Energy for self refresh per rank (pJ) (Joule)
system.mem_ctrl.dram.rank1.totalEnergy       99381270                       # Total energy per rank (pJ) (Joule)
system.mem_ctrl.dram.rank1.averagePower    507.202562                       # Core power per rank (mW) (Watt)
system.mem_ctrl.dram.rank1.totalIdleTime            0                       # Total Idle time Per DRAM Rank (Tick)
system.mem_ctrl.dram.rank1.pwrStateTime::IDLE    101443009                       # Time in different power states (Tick)
system.mem_ctrl.dram.rank1.pwrStateTime::REF      6500000                       # Time in different power states (Tick)
system.mem_ctrl.dram.rank1.pwrStateTime::SREF            0                       # Time in different power states (Tick)
system.mem_ctrl.dram.rank1.pwrStateTime::PRE_PDN            0                       # Time in different power states (Tick)
system.mem_ctrl.dram.rank1.pwrStateTime::ACT     87996991                       # Time in different power states (Tick)
system.mem_ctrl.dram.rank1.pwrStateTime::ACT_PDN            0                       # Time in different power states (Tick)
system.mem_ctrl.power_state.pwrStateResidencyTicks::UNDEFINED    195940000                       # Cumulative time (in ticks) in various power states (Tick)
system.membus.transDist::ReadResp                 519                       # Transaction distribution (Count)
system.membus.transDist::CleanEvict               165                       # Transaction distribution (Count)
system.membus.transDist::UpgradeReq                24                       # Transaction distribution (Count)
system.membus.transDist::ReadExReq                121                       # Transaction distribution (Count)
system.membus.transDist::ReadExResp               121                       # Transaction distribution (Count)
system.membus.transDist::ReadCleanReq             519                       # Transaction distribution (Count)
system.membus.pktCount_system.l2_victimcache.mem_side_port::system.mem_ctrl.port         1469                       # Packet count per connected requestor and responder (Count)
system.membus.pktCount_system.l2_victimcache.mem_side_port::total         1469                       # Packet count per connected requestor and responder (Count)
system.membus.pktCount::total                    1469                       # Packet count per connected requestor and responder (Count)
system.membus.pktSize_system.l2_victimcache.mem_side_port::system.mem_ctrl.port        40960                       # Cumulative packet size per connected requestor and responder (Byte)
system.membus.pktSize_system.l2_victimcache.mem_side_port::total        40960                       # Cumulative packet size per connected requestor and responder (Byte)
system.membus.pktSize::total                    40960                       # Cumulative packet size per connected requestor and responder (Byte)
system.membus.snoops                                0                       # Total snoops (Count)
system.membus.snoopTraffic                          0                       # Total snoop traffic (Byte)
system.membus.snoopFanout::samples                664                       # Request fanout histogram (Count)
system.membus.snoopFanout::mean                     0                       # Request fanout histogram (Count)
system.membus.snoopFanout::stdev                    0                       # Request fanout histogram (Count)
system.membus.snoopFanout::underflows               0      0.00%      0.00% # Request fanout histogram (Count)
system.membus.snoopFanout::0                      664    100.00%    100.00% # Request fanout histogram (Count)
system.membus.snoopFanout::1                        0      0.00%    100.00% # Request fanout histogram (Count)
system.membus.snoopFanout::overflows                0      0.00%    100.00% # Request fanout histogram (Count)
system.membus.snoopFanout::min_value                0                       # Request fanout histogram (Count)
system.membus.snoopFanout::max_value                0                       # Request fanout histogram (Count)
system.membus.snoopFanout::total                  664                       # Request fanout histogram (Count)
system.membus.power_state.pwrStateResidencyTicks::UNDEFINED    195940000                       # Cumulative time (in ticks) in various power states (Tick)
system.membus.reqLayer2.occupancy             1657171                       # Layer occupancy (ticks) (Tick)
system.membus.reqLayer2.utilization               0.0                       # Layer utilization (Ratio)
system.membus.respLayer0.occupancy            3432512                       # Layer occupancy (ticks) (Tick)
system.membus.respLayer0.utilization              0.0                       # Layer utilization (Ratio)
system.membus.snoop_filter.totRequests            829                       # Total number of requests made to the snoop filter. (Count)
system.membus.snoop_filter.hitSingleRequests          189                       # Number of requests hitting in the snoop filter with a single holder of the requested data. (Count)
system.membus.snoop_filter.hitMultiRequests            0                       # Number of requests hitting in the snoop filter with multiple (>1) holders of the requested data. (Count)
system.membus.snoop_filter.totSnoops                0                       # Total number of snoops made to the snoop filter. (Count)
system.membus.snoop_filter.hitSingleSnoops            0                       # Number of snoops hitting in the snoop filter with a single holder of the requested data. (Count)
system.membus.snoop_filter.hitMultiSnoops            0                       # Number of snoops hitting in the snoop filter with multiple (>1) holders of the requested data. (Count)
system.workload.inst.arm                            0                       # number of arm instructions executed (Count)
system.workload.inst.quiesce                        0                       # number of quiesce instructions executed (Count)

---------- End Simulation Statistics   ----------
