
---------- Begin Simulation Statistics ----------
simSeconds                                   0.000242                       # Number of seconds simulated (Second)
simTicks                                    242334000                       # Number of ticks simulated (Tick)
finalTick                                   242334000                       # Number of ticks from beginning of simulation (restored from checkpoints and never reset) (Tick)
simFreq                                  1000000000000                       # The number of ticks per simulated second ((Tick/Second))
hostSeconds                                      1.65                       # Real time elapsed on the host (Second)
hostTickRate                                146555758                       # The number of ticks simulated per host second (ticks/s) ((Tick/Second))
hostMemory                                     645992                       # Number of bytes of host memory used (Byte)
simInsts                                       123099                       # Number of instructions simulated (Count)
simOps                                         245702                       # Number of ops (including micro ops) simulated (Count)
hostInstRate                                    74440                       # Simulator instruction rate (inst/s) ((Count/Second))
hostOpRate                                     148579                       # Simulator op (including micro ops) rate (op/s) ((Count/Second))
system.clk_domain.clock                          1000                       # Clock period in ticks (Tick)
system.clk_domain.voltage_domain.voltage            1                       # Voltage in Volts (Volt)
system.cpu.numCycles                           242335                       # Number of cpu cycles simulated (Cycle)
system.cpu.numWorkItemsStarted                      0                       # Number of work items this cpu started (Count)
system.cpu.numWorkItemsCompleted                    0                       # Number of work items this cpu completed (Count)
system.cpu.instsAdded                          259149                       # Number of instructions added to the IQ (excludes non-spec) (Count)
system.cpu.nonSpecInstsAdded                        1                       # Number of non-speculative instructions added to the IQ (Count)
system.cpu.instsIssued                         663138                       # Number of instructions issued (Count)
system.cpu.squashedInstsIssued                     52                       # Number of squashed instructions issued (Count)
system.cpu.squashedInstsExamined                13442                       # Number of squashed instructions iterated over during squash; mainly for profiling (Count)
system.cpu.squashedOperandsExamined             15208                       # Number of squashed operands that are examined and possibly removed from graph (Count)
system.cpu.squashedNonSpecRemoved                   1                       # Number of squashed non-spec instructions that were removed (Count)
system.cpu.numIssuedDist::samples              222194                       # Number of insts issued each cycle (Count)
system.cpu.numIssuedDist::mean               2.984500                       # Number of insts issued each cycle (Count)
system.cpu.numIssuedDist::stdev              2.257555                       # Number of insts issued each cycle (Count)
system.cpu.numIssuedDist::underflows                0      0.00%      0.00% # Number of insts issued each cycle (Count)
system.cpu.numIssuedDist::0                     54508     24.53%     24.53% # Number of insts issued each cycle (Count)
system.cpu.numIssuedDist::1                     19648      8.84%     33.37% # Number of insts issued each cycle (Count)
system.cpu.numIssuedDist::2                     15223      6.85%     40.23% # Number of insts issued each cycle (Count)
system.cpu.numIssuedDist::3                     14453      6.50%     46.73% # Number of insts issued each cycle (Count)
system.cpu.numIssuedDist::4                     64392     28.98%     75.71% # Number of insts issued each cycle (Count)
system.cpu.numIssuedDist::5                     32147     14.47%     90.18% # Number of insts issued each cycle (Count)
system.cpu.numIssuedDist::6                      9174      4.13%     94.31% # Number of insts issued each cycle (Count)
system.cpu.numIssuedDist::7                      4854      2.18%     96.49% # Number of insts issued each cycle (Count)
system.cpu.numIssuedDist::8                      7795      3.51%    100.00% # Number of insts issued each cycle (Count)
system.cpu.numIssuedDist::overflows                 0      0.00%    100.00% # Number of insts issued each cycle (Count)
system.cpu.numIssuedDist::min_value                 0                       # Number of insts issued each cycle (Count)
system.cpu.numIssuedDist::max_value                 8                       # Number of insts issued each cycle (Count)
system.cpu.numIssuedDist::total                222194                       # Number of insts issued each cycle (Count)
system.cpu.statFuBusy::No_OpClass                   0      0.00%      0.00% # attempts to use FU when none available (Count)
system.cpu.statFuBusy::IntAlu                     255      0.27%      0.27% # attempts to use FU when none available (Count)
system.cpu.statFuBusy::IntMult                      0      0.00%      0.27% # attempts to use FU when none available (Count)
system.cpu.statFuBusy::IntDiv                       0      0.00%      0.27% # attempts to use FU when none available (Count)
system.cpu.statFuBusy::FloatAdd                     0      0.00%      0.27% # attempts to use FU when none available (Count)
system.cpu.statFuBusy::FloatCmp                     0      0.00%      0.27% # attempts to use FU when none available (Count)
system.cpu.statFuBusy::FloatCvt                     0      0.00%      0.27% # attempts to use FU when none available (Count)
system.cpu.statFuBusy::FloatMult                    0      0.00%      0.27% # attempts to use FU when none available (Count)
system.cpu.statFuBusy::FloatMultAcc                 0      0.00%      0.27% # attempts to use FU when none available (Count)
system.cpu.statFuBusy::FloatDiv                     0      0.00%      0.27% # attempts to use FU when none available (Count)
system.cpu.statFuBusy::FloatMisc                    0      0.00%      0.27% # attempts to use FU when none available (Count)
system.cpu.statFuBusy::FloatSqrt                    0      0.00%      0.27% # attempts to use FU when none available (Count)
system.cpu.statFuBusy::SimdAdd                      0      0.00%      0.27% # attempts to use FU when none available (Count)
system.cpu.statFuBusy::SimdAddAcc                   0      0.00%      0.27% # attempts to use FU when none available (Count)
system.cpu.statFuBusy::SimdAlu                     11      0.01%      0.28% # attempts to use FU when none available (Count)
system.cpu.statFuBusy::SimdCmp                      0      0.00%      0.28% # attempts to use FU when none available (Count)
system.cpu.statFuBusy::SimdCvt                      2      0.00%      0.29% # attempts to use FU when none available (Count)
system.cpu.statFuBusy::SimdMisc                     2      0.00%      0.29% # attempts to use FU when none available (Count)
system.cpu.statFuBusy::SimdMult                     0      0.00%      0.29% # attempts to use FU when none available (Count)
system.cpu.statFuBusy::SimdMultAcc                  0      0.00%      0.29% # attempts to use FU when none available (Count)
system.cpu.statFuBusy::SimdShift                    0      0.00%      0.29% # attempts to use FU when none available (Count)
system.cpu.statFuBusy::SimdShiftAcc                 0      0.00%      0.29% # attempts to use FU when none available (Count)
system.cpu.statFuBusy::SimdDiv                      0      0.00%      0.29% # attempts to use FU when none available (Count)
system.cpu.statFuBusy::SimdSqrt                     0      0.00%      0.29% # attempts to use FU when none available (Count)
system.cpu.statFuBusy::SimdFloatAdd                 0      0.00%      0.29% # attempts to use FU when none available (Count)
system.cpu.statFuBusy::SimdFloatAlu                 0      0.00%      0.29% # attempts to use FU when none available (Count)
system.cpu.statFuBusy::SimdFloatCmp                 0      0.00%      0.29% # attempts to use FU when none available (Count)
system.cpu.statFuBusy::SimdFloatCvt                 0      0.00%      0.29% # attempts to use FU when none available (Count)
system.cpu.statFuBusy::SimdFloatDiv                 0      0.00%      0.29% # attempts to use FU when none available (Count)
system.cpu.statFuBusy::SimdFloatMisc                0      0.00%      0.29% # attempts to use FU when none available (Count)
system.cpu.statFuBusy::SimdFloatMult                0      0.00%      0.29% # attempts to use FU when none available (Count)
system.cpu.statFuBusy::SimdFloatMultAcc             0      0.00%      0.29% # attempts to use FU when none available (Count)
system.cpu.statFuBusy::SimdFloatSqrt                0      0.00%      0.29% # attempts to use FU when none available (Count)
system.cpu.statFuBusy::SimdReduceAdd                0      0.00%      0.29% # attempts to use FU when none available (Count)
system.cpu.statFuBusy::SimdReduceAlu                0      0.00%      0.29% # attempts to use FU when none available (Count)
system.cpu.statFuBusy::SimdReduceCmp                0      0.00%      0.29% # attempts to use FU when none available (Count)
system.cpu.statFuBusy::SimdFloatReduceAdd            0      0.00%      0.29% # attempts to use FU when none available (Count)
system.cpu.statFuBusy::SimdFloatReduceCmp            0      0.00%      0.29% # attempts to use FU when none available (Count)
system.cpu.statFuBusy::SimdAes                      0      0.00%      0.29% # attempts to use FU when none available (Count)
system.cpu.statFuBusy::SimdAesMix                   0      0.00%      0.29% # attempts to use FU when none available (Count)
system.cpu.statFuBusy::SimdSha1Hash                 0      0.00%      0.29% # attempts to use FU when none available (Count)
system.cpu.statFuBusy::SimdSha1Hash2                0      0.00%      0.29% # attempts to use FU when none available (Count)
system.cpu.statFuBusy::SimdSha256Hash               0      0.00%      0.29% # attempts to use FU when none available (Count)
system.cpu.statFuBusy::SimdSha256Hash2              0      0.00%      0.29% # attempts to use FU when none available (Count)
system.cpu.statFuBusy::SimdShaSigma2                0      0.00%      0.29% # attempts to use FU when none available (Count)
system.cpu.statFuBusy::SimdShaSigma3                0      0.00%      0.29% # attempts to use FU when none available (Count)
system.cpu.statFuBusy::SimdPredAlu                  0      0.00%      0.29% # attempts to use FU when none available (Count)
system.cpu.statFuBusy::MemRead                     36      0.04%      0.33% # attempts to use FU when none available (Count)
system.cpu.statFuBusy::MemWrite                    16      0.02%      0.34% # attempts to use FU when none available (Count)
system.cpu.statFuBusy::FloatMemRead             93653     99.64%     99.99% # attempts to use FU when none available (Count)
system.cpu.statFuBusy::FloatMemWrite               13      0.01%    100.00% # attempts to use FU when none available (Count)
system.cpu.statFuBusy::IprAccess                    0      0.00%    100.00% # attempts to use FU when none available (Count)
system.cpu.statFuBusy::InstPrefetch                 0      0.00%    100.00% # attempts to use FU when none available (Count)
system.cpu.statIssuedInstType_0::No_OpClass          672      0.10%      0.10% # Number of instructions issued per FU type, per thread (Count)
system.cpu.statIssuedInstType_0::IntAlu        102019     15.38%     15.49% # Number of instructions issued per FU type, per thread (Count)
system.cpu.statIssuedInstType_0::IntMult            5      0.00%     15.49% # Number of instructions issued per FU type, per thread (Count)
system.cpu.statIssuedInstType_0::IntDiv            22      0.00%     15.49% # Number of instructions issued per FU type, per thread (Count)
system.cpu.statIssuedInstType_0::FloatAdd          136      0.02%     15.51% # Number of instructions issued per FU type, per thread (Count)
system.cpu.statIssuedInstType_0::FloatCmp            0      0.00%     15.51% # Number of instructions issued per FU type, per thread (Count)
system.cpu.statIssuedInstType_0::FloatCvt            0      0.00%     15.51% # Number of instructions issued per FU type, per thread (Count)
system.cpu.statIssuedInstType_0::FloatMult            0      0.00%     15.51% # Number of instructions issued per FU type, per thread (Count)
system.cpu.statIssuedInstType_0::FloatMultAcc            0      0.00%     15.51% # Number of instructions issued per FU type, per thread (Count)
system.cpu.statIssuedInstType_0::FloatDiv            0      0.00%     15.51% # Number of instructions issued per FU type, per thread (Count)
system.cpu.statIssuedInstType_0::FloatMisc            0      0.00%     15.51% # Number of instructions issued per FU type, per thread (Count)
system.cpu.statIssuedInstType_0::FloatSqrt            0      0.00%     15.51% # Number of instructions issued per FU type, per thread (Count)
system.cpu.statIssuedInstType_0::SimdAdd            0      0.00%     15.51% # Number of instructions issued per FU type, per thread (Count)
system.cpu.statIssuedInstType_0::SimdAddAcc            0      0.00%     15.51% # Number of instructions issued per FU type, per thread (Count)
system.cpu.statIssuedInstType_0::SimdAlu          160      0.02%     15.53% # Number of instructions issued per FU type, per thread (Count)
system.cpu.statIssuedInstType_0::SimdCmp            0      0.00%     15.53% # Number of instructions issued per FU type, per thread (Count)
system.cpu.statIssuedInstType_0::SimdCvt           48      0.01%     15.54% # Number of instructions issued per FU type, per thread (Count)
system.cpu.statIssuedInstType_0::SimdMisc          218      0.03%     15.57% # Number of instructions issued per FU type, per thread (Count)
system.cpu.statIssuedInstType_0::SimdMult            0      0.00%     15.57% # Number of instructions issued per FU type, per thread (Count)
system.cpu.statIssuedInstType_0::SimdMultAcc            0      0.00%     15.57% # Number of instructions issued per FU type, per thread (Count)
system.cpu.statIssuedInstType_0::SimdShift            0      0.00%     15.57% # Number of instructions issued per FU type, per thread (Count)
system.cpu.statIssuedInstType_0::SimdShiftAcc            0      0.00%     15.57% # Number of instructions issued per FU type, per thread (Count)
system.cpu.statIssuedInstType_0::SimdDiv            0      0.00%     15.57% # Number of instructions issued per FU type, per thread (Count)
system.cpu.statIssuedInstType_0::SimdSqrt            0      0.00%     15.57% # Number of instructions issued per FU type, per thread (Count)
system.cpu.statIssuedInstType_0::SimdFloatAdd        73728     11.12%     26.69% # Number of instructions issued per FU type, per thread (Count)
system.cpu.statIssuedInstType_0::SimdFloatAlu            0      0.00%     26.69% # Number of instructions issued per FU type, per thread (Count)
system.cpu.statIssuedInstType_0::SimdFloatCmp            0      0.00%     26.69% # Number of instructions issued per FU type, per thread (Count)
system.cpu.statIssuedInstType_0::SimdFloatCvt            0      0.00%     26.69% # Number of instructions issued per FU type, per thread (Count)
system.cpu.statIssuedInstType_0::SimdFloatDiv            0      0.00%     26.69% # Number of instructions issued per FU type, per thread (Count)
system.cpu.statIssuedInstType_0::SimdFloatMisc            0      0.00%     26.69% # Number of instructions issued per FU type, per thread (Count)
system.cpu.statIssuedInstType_0::SimdFloatMult            0      0.00%     26.69% # Number of instructions issued per FU type, per thread (Count)
system.cpu.statIssuedInstType_0::SimdFloatMultAcc            0      0.00%     26.69% # Number of instructions issued per FU type, per thread (Count)
system.cpu.statIssuedInstType_0::SimdFloatSqrt            0      0.00%     26.69% # Number of instructions issued per FU type, per thread (Count)
system.cpu.statIssuedInstType_0::SimdReduceAdd            0      0.00%     26.69% # Number of instructions issued per FU type, per thread (Count)
system.cpu.statIssuedInstType_0::SimdReduceAlu            0      0.00%     26.69% # Number of instructions issued per FU type, per thread (Count)
system.cpu.statIssuedInstType_0::SimdReduceCmp            0      0.00%     26.69% # Number of instructions issued per FU type, per thread (Count)
system.cpu.statIssuedInstType_0::SimdFloatReduceAdd            0      0.00%     26.69% # Number of instructions issued per FU type, per thread (Count)
system.cpu.statIssuedInstType_0::SimdFloatReduceCmp            0      0.00%     26.69% # Number of instructions issued per FU type, per thread (Count)
system.cpu.statIssuedInstType_0::SimdAes            0      0.00%     26.69% # Number of instructions issued per FU type, per thread (Count)
system.cpu.statIssuedInstType_0::SimdAesMix            0      0.00%     26.69% # Number of instructions issued per FU type, per thread (Count)
system.cpu.statIssuedInstType_0::SimdSha1Hash            0      0.00%     26.69% # Number of instructions issued per FU type, per thread (Count)
system.cpu.statIssuedInstType_0::SimdSha1Hash2            0      0.00%     26.69% # Number of instructions issued per FU type, per thread (Count)
system.cpu.statIssuedInstType_0::SimdSha256Hash            0      0.00%     26.69% # Number of instructions issued per FU type, per thread (Count)
system.cpu.statIssuedInstType_0::SimdSha256Hash2            0      0.00%     26.69% # Number of instructions issued per FU type, per thread (Count)
system.cpu.statIssuedInstType_0::SimdShaSigma2            0      0.00%     26.69% # Number of instructions issued per FU type, per thread (Count)
system.cpu.statIssuedInstType_0::SimdShaSigma3            0      0.00%     26.69% # Number of instructions issued per FU type, per thread (Count)
system.cpu.statIssuedInstType_0::SimdPredAlu            0      0.00%     26.69% # Number of instructions issued per FU type, per thread (Count)
system.cpu.statIssuedInstType_0::MemRead         2931      0.44%     27.13% # Number of instructions issued per FU type, per thread (Count)
system.cpu.statIssuedInstType_0::MemWrite         1799      0.27%     27.41% # Number of instructions issued per FU type, per thread (Count)
system.cpu.statIssuedInstType_0::FloatMemRead       480855     72.51%     99.92% # Number of instructions issued per FU type, per thread (Count)
system.cpu.statIssuedInstType_0::FloatMemWrite          545      0.08%    100.00% # Number of instructions issued per FU type, per thread (Count)
system.cpu.statIssuedInstType_0::IprAccess            0      0.00%    100.00% # Number of instructions issued per FU type, per thread (Count)
system.cpu.statIssuedInstType_0::InstPrefetch            0      0.00%    100.00% # Number of instructions issued per FU type, per thread (Count)
system.cpu.statIssuedInstType_0::total         663138                       # Number of instructions issued per FU type, per thread (Count)
system.cpu.issueRate                         2.736452                       # Inst issue rate ((Count/Cycle))
system.cpu.fuBusy                               93988                       # FU busy when requested (Count)
system.cpu.fuBusyRate                        0.141732                       # FU busy rate (busy events/executed inst) ((Count/Count))
system.cpu.intInstQueueReads                   437168                       # Number of integer instruction queue reads (Count)
system.cpu.intInstQueueWrites                  123622                       # Number of integer instruction queue writes (Count)
system.cpu.intInstQueueWakeupAccesses          105600                       # Number of integer instruction queue wakeup accesses (Count)
system.cpu.fpInstQueueReads                   1205342                       # Number of floating instruction queue reads (Count)
system.cpu.fpInstQueueWrites                   148982                       # Number of floating instruction queue writes (Count)
system.cpu.fpInstQueueWakeupAccesses           148755                       # Number of floating instruction queue wakeup accesses (Count)
system.cpu.vecInstQueueReads                        0                       # Number of vector instruction queue reads (Count)
system.cpu.vecInstQueueWrites                       0                       # Number of vector instruction queue writes (Count)
system.cpu.vecInstQueueWakeupAccesses               0                       # Number of vector instruction queue wakeup accesses (Count)
system.cpu.intAluAccesses                      106943                       # Number of integer alu accesses (Count)
system.cpu.fpAluAccesses                       649511                       # Number of floating point alu accesses (Count)
system.cpu.vecAluAccesses                           0                       # Number of vector alu accesses (Count)
system.cpu.idleCycles                               0                       # Number of cycles IEW is idle (Cycle)
system.cpu.squashCycles                           607                       # Number of cycles IEW is squashing (Cycle)
system.cpu.blockCycles                           4303                       # Number of cycles IEW is blocking (Cycle)
system.cpu.unblockCycles                         8273                       # Number of cycles IEW is unblocking (Cycle)
system.cpu.dispatchedInsts                     259150                       # Number of instructions dispatched to IQ (Count)
system.cpu.dispSquashedInsts                       27                       # Number of squashed instructions skipped by dispatch (Count)
system.cpu.dispLoadInsts                        76920                       # Number of dispatched load instructions (Count)
system.cpu.dispStoreInsts                        2733                       # Number of dispatched store instructions (Count)
system.cpu.dispNonSpecInsts                         1                       # Number of dispatched non-speculative instructions (Count)
system.cpu.iqFullEvents                            29                       # Number of times the IQ has become full, causing a stall (Count)
system.cpu.lsqFullEvents                         8149                       # Number of times the LSQ has become full, causing a stall (Count)
system.cpu.memOrderViolationEvents                 13                       # Number of memory order violations (Count)
system.cpu.predictedTakenIncorrect                 49                       # Number of branches that were predicted taken incorrectly (Count)
system.cpu.predictedNotTakenIncorrect             646                       # Number of branches that were predicted not taken incorrectly (Count)
system.cpu.branchMispredicts                      695                       # Number of branch mispredicts detected at execute (Count)
system.cpu.numInsts                            662175                       # Number of executed instructions (Count)
system.cpu.numLoadInsts                        483602                       # Number of load instructions executed (Count)
system.cpu.numSquashedInsts                       963                       # Number of squashed instructions skipped in execute (Count)
system.cpu.numSwp                                   0                       # Number of swp insts executed (Count)
system.cpu.numNop                                   0                       # Number of nop insts executed (Count)
system.cpu.numRefs                             485855                       # Number of memory reference insts executed (Count)
system.cpu.numBranches                          10668                       # Number of branches executed (Count)
system.cpu.numStoreInsts                         2253                       # Number of stores executed (Count)
system.cpu.numRate                           2.732478                       # Inst execution rate ((Count/Cycle))
system.cpu.instsToCommit                       254753                       # Cumulative count of insts sent to commit (Count)
system.cpu.writebackCount                      254355                       # Cumulative count of insts written-back (Count)
system.cpu.producerInst                        230902                       # Number of instructions producing a value (Count)
system.cpu.consumerInst                        347086                       # Number of instructions consuming a value (Count)
system.cpu.wbRate                            1.049601                       # Insts written-back per cycle ((Count/Cycle))
system.cpu.wbFanout                          0.665259                       # Average fanout of values written-back ((Count/Count))
system.cpu.timesIdled                             298                       # Number of times that the entire CPU went into an idle state and unscheduled itself (Count)
system.cpu.idleCycles                           20141                       # Total number of cycles that the CPU has spent unscheduled due to idling (Cycle)
system.cpu.committedInsts                      123099                       # Number of Instructions Simulated (Count)
system.cpu.committedOps                        245702                       # Number of Ops (including micro ops) Simulated (Count)
system.cpu.cpi                               1.968619                       # CPI: Cycles Per Instruction ((Cycle/Count))
system.cpu.totalCpi                          1.968619                       # CPI: Total CPI of All Threads ((Cycle/Count))
system.cpu.ipc                               0.507970                       # IPC: Instructions Per Cycle ((Count/Cycle))
system.cpu.totalIpc                          0.507970                       # IPC: Total IPC of All Threads ((Count/Cycle))
system.cpu.intRegfileReads                    1086327                       # Number of integer regfile reads (Count)
system.cpu.intRegfileWrites                     92960                       # Number of integer regfile writes (Count)
system.cpu.fpRegfileReads                      222730                       # Number of floating regfile reads (Count)
system.cpu.fpRegfileWrites                     148178                       # Number of floating regfile writes (Count)
system.cpu.ccRegfileReads                       60342                       # number of cc regfile reads (Count)
system.cpu.ccRegfileWrites                      56540                       # number of cc regfile writes (Count)
system.cpu.miscRegfileReads                    508248                       # number of misc regfile reads (Count)
system.cpu.MemDepUnit__0.insertedLoads          76920                       # Number of loads inserted to the mem dependence unit. (Count)
system.cpu.MemDepUnit__0.insertedStores          2733                       # Number of stores inserted to the mem dependence unit. (Count)
system.cpu.MemDepUnit__0.conflictingLoads           24                       # Number of conflicting loads. (Count)
system.cpu.MemDepUnit__0.conflictingStores            1                       # Number of conflicting stores. (Count)
system.cpu.MemDepUnit__1.insertedLoads              0                       # Number of loads inserted to the mem dependence unit. (Count)
system.cpu.MemDepUnit__1.insertedStores             0                       # Number of stores inserted to the mem dependence unit. (Count)
system.cpu.MemDepUnit__1.conflictingLoads            0                       # Number of conflicting loads. (Count)
system.cpu.MemDepUnit__1.conflictingStores            0                       # Number of conflicting stores. (Count)
system.cpu.MemDepUnit__2.insertedLoads              0                       # Number of loads inserted to the mem dependence unit. (Count)
system.cpu.MemDepUnit__2.insertedStores             0                       # Number of stores inserted to the mem dependence unit. (Count)
system.cpu.MemDepUnit__2.conflictingLoads            0                       # Number of conflicting loads. (Count)
system.cpu.MemDepUnit__2.conflictingStores            0                       # Number of conflicting stores. (Count)
system.cpu.MemDepUnit__3.insertedLoads              0                       # Number of loads inserted to the mem dependence unit. (Count)
system.cpu.MemDepUnit__3.insertedStores             0                       # Number of stores inserted to the mem dependence unit. (Count)
system.cpu.MemDepUnit__3.conflictingLoads            0                       # Number of conflicting loads. (Count)
system.cpu.MemDepUnit__3.conflictingStores            0                       # Number of conflicting stores. (Count)
system.cpu.branchPred.lookups                   12352                       # Number of BP lookups (Count)
system.cpu.branchPred.condPredicted             11082                       # Number of conditional branches predicted (Count)
system.cpu.branchPred.condIncorrect               695                       # Number of conditional branches incorrect (Count)
system.cpu.branchPred.BTBLookups                10086                       # Number of BTB lookups (Count)
system.cpu.branchPred.BTBHits                    9397                       # Number of BTB hits (Count)
system.cpu.branchPred.BTBHitRatio            0.931687                       # BTB Hit Ratio (Ratio)
system.cpu.branchPred.RASUsed                     278                       # Number of times the RAS was used to get a target. (Count)
system.cpu.branchPred.RASIncorrect                  0                       # Number of incorrect RAS predictions. (Count)
system.cpu.branchPred.indirectLookups             357                       # Number of indirect predictor lookups. (Count)
system.cpu.branchPred.indirectHits                 12                       # Number of indirect target hits. (Count)
system.cpu.branchPred.indirectMisses              345                       # Number of indirect misses. (Count)
system.cpu.branchPred.indirectMispredicted           95                       # Number of mispredicted indirect branches. (Count)
system.cpu.commit.commitSquashedInsts           13334                       # The number of squashed insts skipped by commit (Count)
system.cpu.commit.branchMispredicts               582                       # The number of times a branch was mispredicted (Count)
system.cpu.commit.numCommittedDist::samples       220066                       # Number of insts commited each cycle (Count)
system.cpu.commit.numCommittedDist::mean     1.116492                       # Number of insts commited each cycle (Count)
system.cpu.commit.numCommittedDist::stdev     1.925884                       # Number of insts commited each cycle (Count)
system.cpu.commit.numCommittedDist::underflows            0      0.00%      0.00% # Number of insts commited each cycle (Count)
system.cpu.commit.numCommittedDist::0          132575     60.24%     60.24% # Number of insts commited each cycle (Count)
system.cpu.commit.numCommittedDist::1           15844      7.20%     67.44% # Number of insts commited each cycle (Count)
system.cpu.commit.numCommittedDist::2           52585     23.90%     91.34% # Number of insts commited each cycle (Count)
system.cpu.commit.numCommittedDist::3            1768      0.80%     92.14% # Number of insts commited each cycle (Count)
system.cpu.commit.numCommittedDist::4             591      0.27%     92.41% # Number of insts commited each cycle (Count)
system.cpu.commit.numCommittedDist::5             857      0.39%     92.80% # Number of insts commited each cycle (Count)
system.cpu.commit.numCommittedDist::6            6963      3.16%     95.96% # Number of insts commited each cycle (Count)
system.cpu.commit.numCommittedDist::7             107      0.05%     96.01% # Number of insts commited each cycle (Count)
system.cpu.commit.numCommittedDist::8            8776      3.99%    100.00% # Number of insts commited each cycle (Count)
system.cpu.commit.numCommittedDist::overflows            0      0.00%    100.00% # Number of insts commited each cycle (Count)
system.cpu.commit.numCommittedDist::min_value            0                       # Number of insts commited each cycle (Count)
system.cpu.commit.numCommittedDist::max_value            8                       # Number of insts commited each cycle (Count)
system.cpu.commit.numCommittedDist::total       220066                       # Number of insts commited each cycle (Count)
system.cpu.commit.instsCommitted               123099                       # Number of instructions committed (Count)
system.cpu.commit.opsCommitted                 245702                       # Number of ops (including micro ops) committed (Count)
system.cpu.commit.memRefs                       76934                       # Number of memory references committed (Count)
system.cpu.commit.loads                         75288                       # Number of loads committed (Count)
system.cpu.commit.amos                              0                       # Number of atomic instructions committed (Count)
system.cpu.commit.membars                           0                       # Number of memory barriers committed (Count)
system.cpu.commit.branches                       9936                       # Number of branches committed (Count)
system.cpu.commit.vectorInstructions                0                       # Number of committed Vector instructions. (Count)
system.cpu.commit.floating                     148624                       # Number of committed floating point instructions. (Count)
system.cpu.commit.integer                      171222                       # Number of committed integer instructions. (Count)
system.cpu.commit.functionCalls                   150                       # Number of function calls committed. (Count)
system.cpu.commit.committedInstType_0::No_OpClass          195      0.08%      0.08% # Class of committed instruction (Count)
system.cpu.commit.committedInstType_0::IntAlu        94327     38.39%     38.47% # Class of committed instruction (Count)
system.cpu.commit.committedInstType_0::IntMult            5      0.00%     38.47% # Class of committed instruction (Count)
system.cpu.commit.committedInstType_0::IntDiv           21      0.01%     38.48% # Class of committed instruction (Count)
system.cpu.commit.committedInstType_0::FloatAdd          135      0.05%     38.54% # Class of committed instruction (Count)
system.cpu.commit.committedInstType_0::FloatCmp            0      0.00%     38.54% # Class of committed instruction (Count)
system.cpu.commit.committedInstType_0::FloatCvt            0      0.00%     38.54% # Class of committed instruction (Count)
system.cpu.commit.committedInstType_0::FloatMult            0      0.00%     38.54% # Class of committed instruction (Count)
system.cpu.commit.committedInstType_0::FloatMultAcc            0      0.00%     38.54% # Class of committed instruction (Count)
system.cpu.commit.committedInstType_0::FloatDiv            0      0.00%     38.54% # Class of committed instruction (Count)
system.cpu.commit.committedInstType_0::FloatMisc            0      0.00%     38.54% # Class of committed instruction (Count)
system.cpu.commit.committedInstType_0::FloatSqrt            0      0.00%     38.54% # Class of committed instruction (Count)
system.cpu.commit.committedInstType_0::SimdAdd            0      0.00%     38.54% # Class of committed instruction (Count)
system.cpu.commit.committedInstType_0::SimdAddAcc            0      0.00%     38.54% # Class of committed instruction (Count)
system.cpu.commit.committedInstType_0::SimdAlu           96      0.04%     38.57% # Class of committed instruction (Count)
system.cpu.commit.committedInstType_0::SimdCmp            0      0.00%     38.57% # Class of committed instruction (Count)
system.cpu.commit.committedInstType_0::SimdCvt           46      0.02%     38.59% # Class of committed instruction (Count)
system.cpu.commit.committedInstType_0::SimdMisc          215      0.09%     38.68% # Class of committed instruction (Count)
system.cpu.commit.committedInstType_0::SimdMult            0      0.00%     38.68% # Class of committed instruction (Count)
system.cpu.commit.committedInstType_0::SimdMultAcc            0      0.00%     38.68% # Class of committed instruction (Count)
system.cpu.commit.committedInstType_0::SimdShift            0      0.00%     38.68% # Class of committed instruction (Count)
system.cpu.commit.committedInstType_0::SimdShiftAcc            0      0.00%     38.68% # Class of committed instruction (Count)
system.cpu.commit.committedInstType_0::SimdDiv            0      0.00%     38.68% # Class of committed instruction (Count)
system.cpu.commit.committedInstType_0::SimdSqrt            0      0.00%     38.68% # Class of committed instruction (Count)
system.cpu.commit.committedInstType_0::SimdFloatAdd        73728     30.01%     68.69% # Class of committed instruction (Count)
system.cpu.commit.committedInstType_0::SimdFloatAlu            0      0.00%     68.69% # Class of committed instruction (Count)
system.cpu.commit.committedInstType_0::SimdFloatCmp            0      0.00%     68.69% # Class of committed instruction (Count)
system.cpu.commit.committedInstType_0::SimdFloatCvt            0      0.00%     68.69% # Class of committed instruction (Count)
system.cpu.commit.committedInstType_0::SimdFloatDiv            0      0.00%     68.69% # Class of committed instruction (Count)
system.cpu.commit.committedInstType_0::SimdFloatMisc            0      0.00%     68.69% # Class of committed instruction (Count)
system.cpu.commit.committedInstType_0::SimdFloatMult            0      0.00%     68.69% # Class of committed instruction (Count)
system.cpu.commit.committedInstType_0::SimdFloatMultAcc            0      0.00%     68.69% # Class of committed instruction (Count)
system.cpu.commit.committedInstType_0::SimdFloatSqrt            0      0.00%     68.69% # Class of committed instruction (Count)
system.cpu.commit.committedInstType_0::SimdReduceAdd            0      0.00%     68.69% # Class of committed instruction (Count)
system.cpu.commit.committedInstType_0::SimdReduceAlu            0      0.00%     68.69% # Class of committed instruction (Count)
system.cpu.commit.committedInstType_0::SimdReduceCmp            0      0.00%     68.69% # Class of committed instruction (Count)
system.cpu.commit.committedInstType_0::SimdFloatReduceAdd            0      0.00%     68.69% # Class of committed instruction (Count)
system.cpu.commit.committedInstType_0::SimdFloatReduceCmp            0      0.00%     68.69% # Class of committed instruction (Count)
system.cpu.commit.committedInstType_0::SimdAes            0      0.00%     68.69% # Class of committed instruction (Count)
system.cpu.commit.committedInstType_0::SimdAesMix            0      0.00%     68.69% # Class of committed instruction (Count)
system.cpu.commit.committedInstType_0::SimdSha1Hash            0      0.00%     68.69% # Class of committed instruction (Count)
system.cpu.commit.committedInstType_0::SimdSha1Hash2            0      0.00%     68.69% # Class of committed instruction (Count)
system.cpu.commit.committedInstType_0::SimdSha256Hash            0      0.00%     68.69% # Class of committed instruction (Count)
system.cpu.commit.committedInstType_0::SimdSha256Hash2            0      0.00%     68.69% # Class of committed instruction (Count)
system.cpu.commit.committedInstType_0::SimdShaSigma2            0      0.00%     68.69% # Class of committed instruction (Count)
system.cpu.commit.committedInstType_0::SimdShaSigma3            0      0.00%     68.69% # Class of committed instruction (Count)
system.cpu.commit.committedInstType_0::SimdPredAlu            0      0.00%     68.69% # Class of committed instruction (Count)
system.cpu.commit.committedInstType_0::MemRead         1498      0.61%     69.30% # Class of committed instruction (Count)
system.cpu.commit.committedInstType_0::MemWrite         1171      0.48%     69.77% # Class of committed instruction (Count)
system.cpu.commit.committedInstType_0::FloatMemRead        73790     30.03%     99.81% # Class of committed instruction (Count)
system.cpu.commit.committedInstType_0::FloatMemWrite          475      0.19%    100.00% # Class of committed instruction (Count)
system.cpu.commit.committedInstType_0::IprAccess            0      0.00%    100.00% # Class of committed instruction (Count)
system.cpu.commit.committedInstType_0::InstPrefetch            0      0.00%    100.00% # Class of committed instruction (Count)
system.cpu.commit.committedInstType_0::total       245702                       # Class of committed instruction (Count)
system.cpu.commit.commitEligibleSamples          8776                       # number cycles where commit BW limit reached (Cycle)
system.cpu.dcache.demandHits::cpu.data           9255                       # number of demand (read+write) hits (Count)
system.cpu.dcache.demandHits::total              9255                       # number of demand (read+write) hits (Count)
system.cpu.dcache.overallHits::cpu.data          9255                       # number of overall hits (Count)
system.cpu.dcache.overallHits::total             9255                       # number of overall hits (Count)
system.cpu.dcache.demandMisses::cpu.data        73195                       # number of demand (read+write) misses (Count)
system.cpu.dcache.demandMisses::total           73195                       # number of demand (read+write) misses (Count)
system.cpu.dcache.overallMisses::cpu.data        73195                       # number of overall misses (Count)
system.cpu.dcache.overallMisses::total          73195                       # number of overall misses (Count)
system.cpu.dcache.demandMissLatency::cpu.data   1008150999                       # number of demand (read+write) miss ticks (Tick)
system.cpu.dcache.demandMissLatency::total   1008150999                       # number of demand (read+write) miss ticks (Tick)
system.cpu.dcache.overallMissLatency::cpu.data   1008150999                       # number of overall miss ticks (Tick)
system.cpu.dcache.overallMissLatency::total   1008150999                       # number of overall miss ticks (Tick)
system.cpu.dcache.demandAccesses::cpu.data        82450                       # number of demand (read+write) accesses (Count)
system.cpu.dcache.demandAccesses::total         82450                       # number of demand (read+write) accesses (Count)
system.cpu.dcache.overallAccesses::cpu.data        82450                       # number of overall (read+write) accesses (Count)
system.cpu.dcache.overallAccesses::total        82450                       # number of overall (read+write) accesses (Count)
system.cpu.dcache.demandMissRate::cpu.data     0.887750                       # miss rate for demand accesses (Ratio)
system.cpu.dcache.demandMissRate::total      0.887750                       # miss rate for demand accesses (Ratio)
system.cpu.dcache.overallMissRate::cpu.data     0.887750                       # miss rate for overall accesses (Ratio)
system.cpu.dcache.overallMissRate::total     0.887750                       # miss rate for overall accesses (Ratio)
system.cpu.dcache.demandAvgMissLatency::cpu.data 13773.495444                       # average overall miss latency ((Cycle/Count))
system.cpu.dcache.demandAvgMissLatency::total 13773.495444                       # average overall miss latency ((Cycle/Count))
system.cpu.dcache.overallAvgMissLatency::cpu.data 13773.495444                       # average overall miss latency ((Cycle/Count))
system.cpu.dcache.overallAvgMissLatency::total 13773.495444                       # average overall miss latency ((Cycle/Count))
system.cpu.dcache.blockedCycles::no_mshrs       125278                       # number of cycles access was blocked (Cycle)
system.cpu.dcache.blockedCycles::no_targets            0                       # number of cycles access was blocked (Cycle)
system.cpu.dcache.blockedCauses::no_mshrs        53773                       # number of times access was blocked (Count)
system.cpu.dcache.blockedCauses::no_targets            0                       # number of times access was blocked (Count)
system.cpu.dcache.avgBlocked::no_mshrs       2.329757                       # average number of cycles each access was blocked ((Cycle/Count))
system.cpu.dcache.avgBlocked::no_targets          nan                       # average number of cycles each access was blocked ((Cycle/Count))
system.cpu.dcache.writebacks::writebacks        57415                       # number of writebacks (Count)
system.cpu.dcache.writebacks::total             57415                       # number of writebacks (Count)
system.cpu.dcache.demandMshrHits::cpu.data        15533                       # number of demand (read+write) MSHR hits (Count)
system.cpu.dcache.demandMshrHits::total         15533                       # number of demand (read+write) MSHR hits (Count)
system.cpu.dcache.overallMshrHits::cpu.data        15533                       # number of overall MSHR hits (Count)
system.cpu.dcache.overallMshrHits::total        15533                       # number of overall MSHR hits (Count)
system.cpu.dcache.demandMshrMisses::cpu.data        57662                       # number of demand (read+write) MSHR misses (Count)
system.cpu.dcache.demandMshrMisses::total        57662                       # number of demand (read+write) MSHR misses (Count)
system.cpu.dcache.overallMshrMisses::cpu.data        57662                       # number of overall MSHR misses (Count)
system.cpu.dcache.overallMshrMisses::total        57662                       # number of overall MSHR misses (Count)
system.cpu.dcache.demandMshrMissLatency::cpu.data    683652095                       # number of demand (read+write) MSHR miss ticks (Tick)
system.cpu.dcache.demandMshrMissLatency::total    683652095                       # number of demand (read+write) MSHR miss ticks (Tick)
system.cpu.dcache.overallMshrMissLatency::cpu.data    683652095                       # number of overall MSHR miss ticks (Tick)
system.cpu.dcache.overallMshrMissLatency::total    683652095                       # number of overall MSHR miss ticks (Tick)
system.cpu.dcache.demandMshrMissRate::cpu.data     0.699357                       # mshr miss ratio for demand accesses (Ratio)
system.cpu.dcache.demandMshrMissRate::total     0.699357                       # mshr miss ratio for demand accesses (Ratio)
system.cpu.dcache.overallMshrMissRate::cpu.data     0.699357                       # mshr miss ratio for overall accesses (Ratio)
system.cpu.dcache.overallMshrMissRate::total     0.699357                       # mshr miss ratio for overall accesses (Ratio)
system.cpu.dcache.demandAvgMshrMissLatency::cpu.data 11856.198103                       # average overall mshr miss latency ((Cycle/Count))
system.cpu.dcache.demandAvgMshrMissLatency::total 11856.198103                       # average overall mshr miss latency ((Cycle/Count))
system.cpu.dcache.overallAvgMshrMissLatency::cpu.data 11856.198103                       # average overall mshr miss latency ((Cycle/Count))
system.cpu.dcache.overallAvgMshrMissLatency::total 11856.198103                       # average overall mshr miss latency ((Cycle/Count))
system.cpu.dcache.replacements                  57415                       # number of replacements (Count)
system.cpu.dcache.ReadReq.hits::cpu.data         7754                       # number of ReadReq hits (Count)
system.cpu.dcache.ReadReq.hits::total            7754                       # number of ReadReq hits (Count)
system.cpu.dcache.ReadReq.misses::cpu.data        73049                       # number of ReadReq misses (Count)
system.cpu.dcache.ReadReq.misses::total         73049                       # number of ReadReq misses (Count)
system.cpu.dcache.ReadReq.missLatency::cpu.data    993902000                       # number of ReadReq miss ticks (Tick)
system.cpu.dcache.ReadReq.missLatency::total    993902000                       # number of ReadReq miss ticks (Tick)
system.cpu.dcache.ReadReq.accesses::cpu.data        80803                       # number of ReadReq accesses(hits+misses) (Count)
system.cpu.dcache.ReadReq.accesses::total        80803                       # number of ReadReq accesses(hits+misses) (Count)
system.cpu.dcache.ReadReq.missRate::cpu.data     0.904038                       # miss rate for ReadReq accesses (Ratio)
system.cpu.dcache.ReadReq.missRate::total     0.904038                       # miss rate for ReadReq accesses (Ratio)
system.cpu.dcache.ReadReq.avgMissLatency::cpu.data 13605.963121                       # average ReadReq miss latency ((Tick/Count))
system.cpu.dcache.ReadReq.avgMissLatency::total 13605.963121                       # average ReadReq miss latency ((Tick/Count))
system.cpu.dcache.ReadReq.mshrHits::cpu.data        15531                       # number of ReadReq MSHR hits (Count)
system.cpu.dcache.ReadReq.mshrHits::total        15531                       # number of ReadReq MSHR hits (Count)
system.cpu.dcache.ReadReq.mshrMisses::cpu.data        57518                       # number of ReadReq MSHR misses (Count)
system.cpu.dcache.ReadReq.mshrMisses::total        57518                       # number of ReadReq MSHR misses (Count)
system.cpu.dcache.ReadReq.mshrMissLatency::cpu.data    669695096                       # number of ReadReq MSHR miss ticks (Tick)
system.cpu.dcache.ReadReq.mshrMissLatency::total    669695096                       # number of ReadReq MSHR miss ticks (Tick)
system.cpu.dcache.ReadReq.mshrMissRate::cpu.data     0.711830                       # mshr miss rate for ReadReq accesses (Ratio)
system.cpu.dcache.ReadReq.mshrMissRate::total     0.711830                       # mshr miss rate for ReadReq accesses (Ratio)
system.cpu.dcache.ReadReq.avgMshrMissLatency::cpu.data 11643.226399                       # average ReadReq mshr miss latency ((Tick/Count))
system.cpu.dcache.ReadReq.avgMshrMissLatency::total 11643.226399                       # average ReadReq mshr miss latency ((Tick/Count))
system.cpu.dcache.WriteReq.hits::cpu.data         1501                       # number of WriteReq hits (Count)
system.cpu.dcache.WriteReq.hits::total           1501                       # number of WriteReq hits (Count)
system.cpu.dcache.WriteReq.misses::cpu.data          146                       # number of WriteReq misses (Count)
system.cpu.dcache.WriteReq.misses::total          146                       # number of WriteReq misses (Count)
system.cpu.dcache.WriteReq.missLatency::cpu.data     14248999                       # number of WriteReq miss ticks (Tick)
system.cpu.dcache.WriteReq.missLatency::total     14248999                       # number of WriteReq miss ticks (Tick)
system.cpu.dcache.WriteReq.accesses::cpu.data         1647                       # number of WriteReq accesses(hits+misses) (Count)
system.cpu.dcache.WriteReq.accesses::total         1647                       # number of WriteReq accesses(hits+misses) (Count)
system.cpu.dcache.WriteReq.missRate::cpu.data     0.088646                       # miss rate for WriteReq accesses (Ratio)
system.cpu.dcache.WriteReq.missRate::total     0.088646                       # miss rate for WriteReq accesses (Ratio)
system.cpu.dcache.WriteReq.avgMissLatency::cpu.data 97595.883562                       # average WriteReq miss latency ((Tick/Count))
system.cpu.dcache.WriteReq.avgMissLatency::total 97595.883562                       # average WriteReq miss latency ((Tick/Count))
system.cpu.dcache.WriteReq.mshrHits::cpu.data            2                       # number of WriteReq MSHR hits (Count)
system.cpu.dcache.WriteReq.mshrHits::total            2                       # number of WriteReq MSHR hits (Count)
system.cpu.dcache.WriteReq.mshrMisses::cpu.data          144                       # number of WriteReq MSHR misses (Count)
system.cpu.dcache.WriteReq.mshrMisses::total          144                       # number of WriteReq MSHR misses (Count)
system.cpu.dcache.WriteReq.mshrMissLatency::cpu.data     13956999                       # number of WriteReq MSHR miss ticks (Tick)
system.cpu.dcache.WriteReq.mshrMissLatency::total     13956999                       # number of WriteReq MSHR miss ticks (Tick)
system.cpu.dcache.WriteReq.mshrMissRate::cpu.data     0.087432                       # mshr miss rate for WriteReq accesses (Ratio)
system.cpu.dcache.WriteReq.mshrMissRate::total     0.087432                       # mshr miss rate for WriteReq accesses (Ratio)
system.cpu.dcache.WriteReq.avgMshrMissLatency::cpu.data 96923.604167                       # average WriteReq mshr miss latency ((Tick/Count))
system.cpu.dcache.WriteReq.avgMshrMissLatency::total 96923.604167                       # average WriteReq mshr miss latency ((Tick/Count))
system.cpu.dcache.power_state.pwrStateResidencyTicks::UNDEFINED    242334000                       # Cumulative time (in ticks) in various power states (Tick)
system.cpu.dcache.tags.tagsInUse           196.241526                       # Average ticks per tags in use ((Tick/Count))
system.cpu.dcache.tags.totalRefs                66920                       # Total number of references to valid blocks. (Count)
system.cpu.dcache.tags.sampledRefs              57633                       # Sample count of references to valid blocks. (Count)
system.cpu.dcache.tags.avgRefs               1.161140                       # Average number of references to valid blocks. ((Count/Count))
system.cpu.dcache.tags.warmupTick              225000                       # The tick when the warmup percentage was hit. (Tick)
system.cpu.dcache.tags.occupancies::cpu.data   196.241526                       # Average occupied blocks per tick, per requestor ((Count/Tick))
system.cpu.dcache.tags.avgOccs::cpu.data     0.383284                       # Average percentage of cache occupancy ((Ratio/Tick))
system.cpu.dcache.tags.avgOccs::total        0.383284                       # Average percentage of cache occupancy ((Ratio/Tick))
system.cpu.dcache.tags.occupanciesTaskId::1024          218                       # Occupied blocks per task id (Count)
system.cpu.dcache.tags.ageTaskId_1024::0           27                       # Occupied blocks per task id, per block age (Count)
system.cpu.dcache.tags.ageTaskId_1024::2          191                       # Occupied blocks per task id, per block age (Count)
system.cpu.dcache.tags.ratioOccsTaskId::1024     0.425781                       # Ratio of occupied blocks and all blocks, per task id (Ratio)
system.cpu.dcache.tags.tagAccesses             140083                       # Number of tag accesses (Count)
system.cpu.dcache.tags.dataAccesses            140083                       # Number of data accesses (Count)
system.cpu.dcache.tags.power_state.pwrStateResidencyTicks::UNDEFINED    242334000                       # Cumulative time (in ticks) in various power states (Tick)
system.cpu.decode.idleCycles                    24212                       # Number of cycles decode is idle (Cycle)
system.cpu.decode.blockedCycles                163470                       # Number of cycles decode is blocked (Cycle)
system.cpu.decode.runCycles                     11939                       # Number of cycles decode is running (Cycle)
system.cpu.decode.unblockCycles                 21966                       # Number of cycles decode is unblocking (Cycle)
system.cpu.decode.squashCycles                    607                       # Number of cycles decode is squashing (Cycle)
system.cpu.decode.branchResolved                 9522                       # Number of times decode resolved a branch (Count)
system.cpu.decode.branchMispred                   223                       # Number of times decode detected a branch misprediction (Count)
system.cpu.decode.decodedInsts                 263117                       # Number of instructions handled by decode (Count)
system.cpu.decode.squashedInsts                  1008                       # Number of squashed instructions handled by decode (Count)
system.cpu.fetch.icacheStallCycles              32446                       # Number of cycles fetch is stalled on an Icache miss (Cycle)
system.cpu.fetch.insts                         134443                       # Number of instructions fetch has processed (Count)
system.cpu.fetch.branches                       12352                       # Number of branches that fetch encountered (Count)
system.cpu.fetch.predictedBranches               9687                       # Number of branches that fetch has predicted taken (Count)
system.cpu.fetch.cycles                        188053                       # Number of cycles fetch has run and was not squashing or blocked (Cycle)
system.cpu.fetch.squashCycles                    1656                       # Number of cycles fetch has spent squashing (Cycle)
system.cpu.fetch.miscStallCycles                  124                       # Number of cycles fetch has spent waiting on interrupts, or bad addresses, or out of MSHRs (Cycle)
system.cpu.fetch.pendingTrapStallCycles           726                       # Number of stall cycles due to pending traps (Cycle)
system.cpu.fetch.pendingQuiesceStallCycles            2                       # Number of stall cycles due to pending quiesce instructions (Cycle)
system.cpu.fetch.icacheWaitRetryStallCycles           15                       # Number of stall cycles due to full MSHR (Cycle)
system.cpu.fetch.cacheLines                     18806                       # Number of cache lines fetched (Count)
system.cpu.fetch.icacheSquashes                   365                       # Number of outstanding Icache misses that were squashed (Count)
system.cpu.fetch.nisnDist::samples             222194                       # Number of instructions fetched each cycle (Total) (Count)
system.cpu.fetch.nisnDist::mean              1.201666                       # Number of instructions fetched each cycle (Total) (Count)
system.cpu.fetch.nisnDist::stdev             2.601173                       # Number of instructions fetched each cycle (Total) (Count)
system.cpu.fetch.nisnDist::underflows               0      0.00%      0.00% # Number of instructions fetched each cycle (Total) (Count)
system.cpu.fetch.nisnDist::0                   176576     79.47%     79.47% # Number of instructions fetched each cycle (Total) (Count)
system.cpu.fetch.nisnDist::1                     4361      1.96%     81.43% # Number of instructions fetched each cycle (Total) (Count)
system.cpu.fetch.nisnDist::2                      285      0.13%     81.56% # Number of instructions fetched each cycle (Total) (Count)
system.cpu.fetch.nisnDist::3                     3236      1.46%     83.02% # Number of instructions fetched each cycle (Total) (Count)
system.cpu.fetch.nisnDist::4                     7521      3.38%     86.40% # Number of instructions fetched each cycle (Total) (Count)
system.cpu.fetch.nisnDist::5                     4412      1.99%     88.39% # Number of instructions fetched each cycle (Total) (Count)
system.cpu.fetch.nisnDist::6                      318      0.14%     88.53% # Number of instructions fetched each cycle (Total) (Count)
system.cpu.fetch.nisnDist::7                     5568      2.51%     91.04% # Number of instructions fetched each cycle (Total) (Count)
system.cpu.fetch.nisnDist::8                    19917      8.96%    100.00% # Number of instructions fetched each cycle (Total) (Count)
system.cpu.fetch.nisnDist::overflows                0      0.00%    100.00% # Number of instructions fetched each cycle (Total) (Count)
system.cpu.fetch.nisnDist::min_value                0                       # Number of instructions fetched each cycle (Total) (Count)
system.cpu.fetch.nisnDist::max_value                8                       # Number of instructions fetched each cycle (Total) (Count)
system.cpu.fetch.nisnDist::total               222194                       # Number of instructions fetched each cycle (Total) (Count)
system.cpu.fetch.branchRate                  0.050971                       # Number of branch fetches per cycle (Ratio)
system.cpu.fetch.rate                        0.554782                       # Number of inst fetches per cycle ((Count/Cycle))
system.cpu.icache.demandHits::cpu.inst          18189                       # number of demand (read+write) hits (Count)
system.cpu.icache.demandHits::total             18189                       # number of demand (read+write) hits (Count)
system.cpu.icache.overallHits::cpu.inst         18189                       # number of overall hits (Count)
system.cpu.icache.overallHits::total            18189                       # number of overall hits (Count)
system.cpu.icache.demandMisses::cpu.inst          617                       # number of demand (read+write) misses (Count)
system.cpu.icache.demandMisses::total             617                       # number of demand (read+write) misses (Count)
system.cpu.icache.overallMisses::cpu.inst          617                       # number of overall misses (Count)
system.cpu.icache.overallMisses::total            617                       # number of overall misses (Count)
system.cpu.icache.demandMissLatency::cpu.inst     60349999                       # number of demand (read+write) miss ticks (Tick)
system.cpu.icache.demandMissLatency::total     60349999                       # number of demand (read+write) miss ticks (Tick)
system.cpu.icache.overallMissLatency::cpu.inst     60349999                       # number of overall miss ticks (Tick)
system.cpu.icache.overallMissLatency::total     60349999                       # number of overall miss ticks (Tick)
system.cpu.icache.demandAccesses::cpu.inst        18806                       # number of demand (read+write) accesses (Count)
system.cpu.icache.demandAccesses::total         18806                       # number of demand (read+write) accesses (Count)
system.cpu.icache.overallAccesses::cpu.inst        18806                       # number of overall (read+write) accesses (Count)
system.cpu.icache.overallAccesses::total        18806                       # number of overall (read+write) accesses (Count)
system.cpu.icache.demandMissRate::cpu.inst     0.032809                       # miss rate for demand accesses (Ratio)
system.cpu.icache.demandMissRate::total      0.032809                       # miss rate for demand accesses (Ratio)
system.cpu.icache.overallMissRate::cpu.inst     0.032809                       # miss rate for overall accesses (Ratio)
system.cpu.icache.overallMissRate::total     0.032809                       # miss rate for overall accesses (Ratio)
system.cpu.icache.demandAvgMissLatency::cpu.inst 97811.991896                       # average overall miss latency ((Cycle/Count))
system.cpu.icache.demandAvgMissLatency::total 97811.991896                       # average overall miss latency ((Cycle/Count))
system.cpu.icache.overallAvgMissLatency::cpu.inst 97811.991896                       # average overall miss latency ((Cycle/Count))
system.cpu.icache.overallAvgMissLatency::total 97811.991896                       # average overall miss latency ((Cycle/Count))
system.cpu.icache.blockedCycles::no_mshrs          233                       # number of cycles access was blocked (Cycle)
system.cpu.icache.blockedCycles::no_targets            0                       # number of cycles access was blocked (Cycle)
system.cpu.icache.blockedCauses::no_mshrs            5                       # number of times access was blocked (Count)
system.cpu.icache.blockedCauses::no_targets            0                       # number of times access was blocked (Count)
system.cpu.icache.avgBlocked::no_mshrs      46.600000                       # average number of cycles each access was blocked ((Cycle/Count))
system.cpu.icache.avgBlocked::no_targets          nan                       # average number of cycles each access was blocked ((Cycle/Count))
system.cpu.icache.demandMshrHits::cpu.inst          134                       # number of demand (read+write) MSHR hits (Count)
system.cpu.icache.demandMshrHits::total           134                       # number of demand (read+write) MSHR hits (Count)
system.cpu.icache.overallMshrHits::cpu.inst          134                       # number of overall MSHR hits (Count)
system.cpu.icache.overallMshrHits::total          134                       # number of overall MSHR hits (Count)
system.cpu.icache.demandMshrMisses::cpu.inst          483                       # number of demand (read+write) MSHR misses (Count)
system.cpu.icache.demandMshrMisses::total          483                       # number of demand (read+write) MSHR misses (Count)
system.cpu.icache.overallMshrMisses::cpu.inst          483                       # number of overall MSHR misses (Count)
system.cpu.icache.overallMshrMisses::total          483                       # number of overall MSHR misses (Count)
system.cpu.icache.demandMshrMissLatency::cpu.inst     48853999                       # number of demand (read+write) MSHR miss ticks (Tick)
system.cpu.icache.demandMshrMissLatency::total     48853999                       # number of demand (read+write) MSHR miss ticks (Tick)
system.cpu.icache.overallMshrMissLatency::cpu.inst     48853999                       # number of overall MSHR miss ticks (Tick)
system.cpu.icache.overallMshrMissLatency::total     48853999                       # number of overall MSHR miss ticks (Tick)
system.cpu.icache.demandMshrMissRate::cpu.inst     0.025683                       # mshr miss ratio for demand accesses (Ratio)
system.cpu.icache.demandMshrMissRate::total     0.025683                       # mshr miss ratio for demand accesses (Ratio)
system.cpu.icache.overallMshrMissRate::cpu.inst     0.025683                       # mshr miss ratio for overall accesses (Ratio)
system.cpu.icache.overallMshrMissRate::total     0.025683                       # mshr miss ratio for overall accesses (Ratio)
system.cpu.icache.demandAvgMshrMissLatency::cpu.inst 101146.995859                       # average overall mshr miss latency ((Cycle/Count))
system.cpu.icache.demandAvgMshrMissLatency::total 101146.995859                       # average overall mshr miss latency ((Cycle/Count))
system.cpu.icache.overallAvgMshrMissLatency::cpu.inst 101146.995859                       # average overall mshr miss latency ((Cycle/Count))
system.cpu.icache.overallAvgMshrMissLatency::total 101146.995859                       # average overall mshr miss latency ((Cycle/Count))
system.cpu.icache.replacements                    237                       # number of replacements (Count)
system.cpu.icache.ReadReq.hits::cpu.inst        18189                       # number of ReadReq hits (Count)
system.cpu.icache.ReadReq.hits::total           18189                       # number of ReadReq hits (Count)
system.cpu.icache.ReadReq.misses::cpu.inst          617                       # number of ReadReq misses (Count)
system.cpu.icache.ReadReq.misses::total           617                       # number of ReadReq misses (Count)
system.cpu.icache.ReadReq.missLatency::cpu.inst     60349999                       # number of ReadReq miss ticks (Tick)
system.cpu.icache.ReadReq.missLatency::total     60349999                       # number of ReadReq miss ticks (Tick)
system.cpu.icache.ReadReq.accesses::cpu.inst        18806                       # number of ReadReq accesses(hits+misses) (Count)
system.cpu.icache.ReadReq.accesses::total        18806                       # number of ReadReq accesses(hits+misses) (Count)
system.cpu.icache.ReadReq.missRate::cpu.inst     0.032809                       # miss rate for ReadReq accesses (Ratio)
system.cpu.icache.ReadReq.missRate::total     0.032809                       # miss rate for ReadReq accesses (Ratio)
system.cpu.icache.ReadReq.avgMissLatency::cpu.inst 97811.991896                       # average ReadReq miss latency ((Tick/Count))
system.cpu.icache.ReadReq.avgMissLatency::total 97811.991896                       # average ReadReq miss latency ((Tick/Count))
system.cpu.icache.ReadReq.mshrHits::cpu.inst          134                       # number of ReadReq MSHR hits (Count)
system.cpu.icache.ReadReq.mshrHits::total          134                       # number of ReadReq MSHR hits (Count)
system.cpu.icache.ReadReq.mshrMisses::cpu.inst          483                       # number of ReadReq MSHR misses (Count)
system.cpu.icache.ReadReq.mshrMisses::total          483                       # number of ReadReq MSHR misses (Count)
system.cpu.icache.ReadReq.mshrMissLatency::cpu.inst     48853999                       # number of ReadReq MSHR miss ticks (Tick)
system.cpu.icache.ReadReq.mshrMissLatency::total     48853999                       # number of ReadReq MSHR miss ticks (Tick)
system.cpu.icache.ReadReq.mshrMissRate::cpu.inst     0.025683                       # mshr miss rate for ReadReq accesses (Ratio)
system.cpu.icache.ReadReq.mshrMissRate::total     0.025683                       # mshr miss rate for ReadReq accesses (Ratio)
system.cpu.icache.ReadReq.avgMshrMissLatency::cpu.inst 101146.995859                       # average ReadReq mshr miss latency ((Tick/Count))
system.cpu.icache.ReadReq.avgMshrMissLatency::total 101146.995859                       # average ReadReq mshr miss latency ((Tick/Count))
system.cpu.icache.power_state.pwrStateResidencyTicks::UNDEFINED    242334000                       # Cumulative time (in ticks) in various power states (Tick)
system.cpu.icache.tags.tagsInUse           223.978014                       # Average ticks per tags in use ((Tick/Count))
system.cpu.icache.tags.totalRefs                18671                       # Total number of references to valid blocks. (Count)
system.cpu.icache.tags.sampledRefs                482                       # Sample count of references to valid blocks. (Count)
system.cpu.icache.tags.avgRefs              38.736515                       # Average number of references to valid blocks. ((Count/Count))
system.cpu.icache.tags.warmupTick              107000                       # The tick when the warmup percentage was hit. (Tick)
system.cpu.icache.tags.occupancies::cpu.inst   223.978014                       # Average occupied blocks per tick, per requestor ((Count/Tick))
system.cpu.icache.tags.avgOccs::cpu.inst     0.874914                       # Average percentage of cache occupancy ((Ratio/Tick))
system.cpu.icache.tags.avgOccs::total        0.874914                       # Average percentage of cache occupancy ((Ratio/Tick))
system.cpu.icache.tags.occupanciesTaskId::1024          245                       # Occupied blocks per task id (Count)
system.cpu.icache.tags.ageTaskId_1024::0           39                       # Occupied blocks per task id, per block age (Count)
system.cpu.icache.tags.ageTaskId_1024::2          206                       # Occupied blocks per task id, per block age (Count)
system.cpu.icache.tags.ratioOccsTaskId::1024     0.957031                       # Ratio of occupied blocks and all blocks, per task id (Ratio)
system.cpu.icache.tags.tagAccesses              38094                       # Number of tag accesses (Count)
system.cpu.icache.tags.dataAccesses             38094                       # Number of data accesses (Count)
system.cpu.icache.tags.power_state.pwrStateResidencyTicks::UNDEFINED    242334000                       # Cumulative time (in ticks) in various power states (Tick)
system.cpu.interrupts.clk_domain.clock          16000                       # Clock period in ticks (Tick)
system.cpu.lsq0.forwLoads                         211                       # Number of loads that had data forwarded from stores (Count)
system.cpu.lsq0.squashedLoads                    1632                       # Number of loads squashed (Count)
system.cpu.lsq0.ignoredResponses                    1                       # Number of memory responses ignored because the instruction is squashed (Count)
system.cpu.lsq0.memOrderViolation                  13                       # Number of memory ordering violations (Count)
system.cpu.lsq0.squashedStores                   1087                       # Number of stores squashed (Count)
system.cpu.lsq0.rescheduledLoads                    1                       # Number of loads that were rescheduled (Count)
system.cpu.lsq0.blockedByCache                  51956                       # Number of times an access to memory failed due to the cache being blocked (Count)
system.cpu.lsq0.loadToUse::samples              75288                       # Distribution of cycle latency between the first time a load is issued and its completion (Unspecified)
system.cpu.lsq0.loadToUse::mean             39.300353                       # Distribution of cycle latency between the first time a load is issued and its completion (Unspecified)
system.cpu.lsq0.loadToUse::stdev            37.582521                       # Distribution of cycle latency between the first time a load is issued and its completion (Unspecified)
system.cpu.lsq0.loadToUse::0-9                   8482     11.27%     11.27% # Distribution of cycle latency between the first time a load is issued and its completion (Unspecified)
system.cpu.lsq0.loadToUse::10-19                18152     24.11%     35.38% # Distribution of cycle latency between the first time a load is issued and its completion (Unspecified)
system.cpu.lsq0.loadToUse::20-29                12922     17.16%     52.54% # Distribution of cycle latency between the first time a load is issued and its completion (Unspecified)
system.cpu.lsq0.loadToUse::30-39                 9335     12.40%     64.94% # Distribution of cycle latency between the first time a load is issued and its completion (Unspecified)
system.cpu.lsq0.loadToUse::40-49                 5922      7.87%     72.80% # Distribution of cycle latency between the first time a load is issued and its completion (Unspecified)
system.cpu.lsq0.loadToUse::50-59                 5032      6.68%     79.49% # Distribution of cycle latency between the first time a load is issued and its completion (Unspecified)
system.cpu.lsq0.loadToUse::60-69                 4373      5.81%     85.30% # Distribution of cycle latency between the first time a load is issued and its completion (Unspecified)
system.cpu.lsq0.loadToUse::70-79                 3000      3.98%     89.28% # Distribution of cycle latency between the first time a load is issued and its completion (Unspecified)
system.cpu.lsq0.loadToUse::80-89                 2074      2.75%     92.04% # Distribution of cycle latency between the first time a load is issued and its completion (Unspecified)
system.cpu.lsq0.loadToUse::90-99                 1307      1.74%     93.77% # Distribution of cycle latency between the first time a load is issued and its completion (Unspecified)
system.cpu.lsq0.loadToUse::100-109                968      1.29%     95.06% # Distribution of cycle latency between the first time a load is issued and its completion (Unspecified)
system.cpu.lsq0.loadToUse::110-119                775      1.03%     96.09% # Distribution of cycle latency between the first time a load is issued and its completion (Unspecified)
system.cpu.lsq0.loadToUse::120-129                587      0.78%     96.87% # Distribution of cycle latency between the first time a load is issued and its completion (Unspecified)
system.cpu.lsq0.loadToUse::130-139                508      0.67%     97.54% # Distribution of cycle latency between the first time a load is issued and its completion (Unspecified)
system.cpu.lsq0.loadToUse::140-149                407      0.54%     98.08% # Distribution of cycle latency between the first time a load is issued and its completion (Unspecified)
system.cpu.lsq0.loadToUse::150-159                331      0.44%     98.52% # Distribution of cycle latency between the first time a load is issued and its completion (Unspecified)
system.cpu.lsq0.loadToUse::160-169                216      0.29%     98.81% # Distribution of cycle latency between the first time a load is issued and its completion (Unspecified)
system.cpu.lsq0.loadToUse::170-179                169      0.22%     99.03% # Distribution of cycle latency between the first time a load is issued and its completion (Unspecified)
system.cpu.lsq0.loadToUse::180-189                133      0.18%     99.21% # Distribution of cycle latency between the first time a load is issued and its completion (Unspecified)
system.cpu.lsq0.loadToUse::190-199                137      0.18%     99.39% # Distribution of cycle latency between the first time a load is issued and its completion (Unspecified)
system.cpu.lsq0.loadToUse::200-209                 92      0.12%     99.51% # Distribution of cycle latency between the first time a load is issued and its completion (Unspecified)
system.cpu.lsq0.loadToUse::210-219                 72      0.10%     99.61% # Distribution of cycle latency between the first time a load is issued and its completion (Unspecified)
system.cpu.lsq0.loadToUse::220-229                 36      0.05%     99.66% # Distribution of cycle latency between the first time a load is issued and its completion (Unspecified)
system.cpu.lsq0.loadToUse::230-239                 42      0.06%     99.71% # Distribution of cycle latency between the first time a load is issued and its completion (Unspecified)
system.cpu.lsq0.loadToUse::240-249                 19      0.03%     99.74% # Distribution of cycle latency between the first time a load is issued and its completion (Unspecified)
system.cpu.lsq0.loadToUse::250-259                 13      0.02%     99.76% # Distribution of cycle latency between the first time a load is issued and its completion (Unspecified)
system.cpu.lsq0.loadToUse::260-269                 13      0.02%     99.77% # Distribution of cycle latency between the first time a load is issued and its completion (Unspecified)
system.cpu.lsq0.loadToUse::270-279                 27      0.04%     99.81% # Distribution of cycle latency between the first time a load is issued and its completion (Unspecified)
system.cpu.lsq0.loadToUse::280-289                 14      0.02%     99.83% # Distribution of cycle latency between the first time a load is issued and its completion (Unspecified)
system.cpu.lsq0.loadToUse::290-299                  6      0.01%     99.84% # Distribution of cycle latency between the first time a load is issued and its completion (Unspecified)
system.cpu.lsq0.loadToUse::overflows              124      0.16%    100.00% # Distribution of cycle latency between the first time a load is issued and its completion (Unspecified)
system.cpu.lsq0.loadToUse::min_value                2                       # Distribution of cycle latency between the first time a load is issued and its completion (Unspecified)
system.cpu.lsq0.loadToUse::max_value              520                       # Distribution of cycle latency between the first time a load is issued and its completion (Unspecified)
system.cpu.lsq0.loadToUse::total                75288                       # Distribution of cycle latency between the first time a load is issued and its completion (Unspecified)
system.cpu.mmu.dtb.rdAccesses                   81083                       # TLB accesses on read requests (Count)
system.cpu.mmu.dtb.wrAccesses                    2254                       # TLB accesses on write requests (Count)
[...]
system.victimbus.pktCount_system.cpu.dcache.mem_side_port::system.victimcache.cpu_side_port       172743                       # Packet count per connected requestor and responder (Count)
system.victimbus.pktSize_system.cpu.dcache.mem_side_port::system.victimcache.cpu_side_port      7363072                       # Cumulative packet size per connected requestor and responder (Byte)
system.victimbus.snoops                         13536                       # Total snoops (Count)
system.victimbus.snoopTraffic                  866304                       # Total snoop traffic (Byte)
system.victimbus.snoopFanout::samples           71200                       # Request fanout histogram (Count)
system.victimbus.snoopFanout::mean           0.096643                       # Request fanout histogram (Count)
system.victimbus.snoopFanout::stdev          0.295473                       # Request fanout histogram (Count)
system.victimbus.snoopFanout::underflows            0      0.00%      0.00% # Request fanout histogram (Count)
system.victimbus.snoopFanout::0                 64319     90.34%     90.34% # Request fanout histogram (Count)
system.victimbus.snoopFanout::1                  6881      9.66%    100.00% # Request fanout histogram (Count)
system.victimbus.snoopFanout::overflows             0      0.00%    100.00% # Request fanout histogram (Count)
system.victimbus.snoopFanout::min_value             0                       # Request fanout histogram (Count)
system.victimbus.snoopFanout::max_value             1                       # Request fanout histogram (Count)
system.victimbus.snoopFanout::total             71200                       # Request fanout histogram (Count)
system.victimbus.power_state.pwrStateResidencyTicks::UNDEFINED    242334000                       # Cumulative time (in ticks) in various power states (Tick)
system.victimbus.reqLayer0.occupancy        174247123                       # Layer occupancy (ticks) (Tick)
system.victimbus.reqLayer0.utilization            0.7                       # Layer utilization (Ratio)
system.victimbus.respLayer0.occupancy       149830432                       # Layer occupancy (ticks) (Tick)
system.victimbus.respLayer0.utilization           0.6                       # Layer utilization (Ratio)
system.victimbus.snoop_filter.totRequests       115956                       # Total number of requests made to the snoop filter. (Count)
system.victimbus.snoop_filter.hitSingleRequests        58323                       # Number of requests hitting in the snoop filter with a single holder of the requested data. (Count)
system.victimbus.snoop_filter.hitMultiRequests            0                       # Number of requests hitting in the snoop filter with multiple (>1) holders of the requested data. (Count)
system.victimbus.snoop_filter.totSnoops          6881                       # Total number of snoops made to the snoop filter. (Count)
system.victimbus.snoop_filter.hitSingleSnoops         6881                       # Number of snoops hitting in the snoop filter with a single holder of the requested data. (Count)
system.victimbus.snoop_filter.hitMultiSnoops            0                       # Number of snoops hitting in the snoop filter with multiple (>1) holders of the requested data. (Count)
system.victimcache.demandHits::cpu.data         50752                       # number of demand (read+write) hits (Count)
system.victimcache.demandHits::total            50752                       # number of demand (read+write) hits (Count)
system.victimcache.overallHits::cpu.data        50752                       # number of overall hits (Count)
system.victimcache.overallHits::total           50752                       # number of overall hits (Count)
system.victimcache.demandMisses::cpu.data         6881                       # number of demand (read+write) misses (Count)
system.victimcache.demandMisses::total           6881                       # number of demand (read+write) misses (Count)
system.victimcache.overallMisses::cpu.data         6881                       # number of overall misses (Count)
system.victimcache.overallMisses::total          6881                       # number of overall misses (Count)
system.victimcache.demandMissLatency::cpu.data    228114000                       # number of demand (read+write) miss ticks (Tick)
system.victimcache.demandMissLatency::total    228114000                       # number of demand (read+write) miss ticks (Tick)
system.victimcache.overallMissLatency::cpu.data    228114000                       # number of overall miss ticks (Tick)
system.victimcache.overallMissLatency::total    228114000                       # number of overall miss ticks (Tick)
system.victimcache.demandAccesses::cpu.data        57633                       # number of demand (read+write) accesses (Count)
system.victimcache.demandAccesses::total        57633                       # number of demand (read+write) accesses (Count)
system.victimcache.overallAccesses::cpu.data        57633                       # number of overall (read+write) accesses (Count)
system.victimcache.overallAccesses::total        57633                       # number of overall (read+write) accesses (Count)
system.victimcache.demandMissRate::cpu.data     0.119393                       # miss rate for demand accesses (Ratio)
system.victimcache.demandMissRate::total     0.119393                       # miss rate for demand accesses (Ratio)
system.victimcache.overallMissRate::cpu.data     0.119393                       # miss rate for overall accesses (Ratio)
system.victimcache.overallMissRate::total     0.119393                       # miss rate for overall accesses (Ratio)
system.victimcache.demandAvgMissLatency::cpu.data 33151.286150                       # average overall miss latency ((Cycle/Count))
system.victimcache.demandAvgMissLatency::total 33151.286150                       # average overall miss latency ((Cycle/Count))
system.victimcache.overallAvgMissLatency::cpu.data 33151.286150                       # average overall miss latency ((Cycle/Count))
system.victimcache.overallAvgMissLatency::total 33151.286150                       # average overall miss latency ((Cycle/Count))
system.victimcache.blockedCycles::no_mshrs        13789                       # number of cycles access was blocked (Cycle)
system.victimcache.blockedCycles::no_targets            0                       # number of cycles access was blocked (Cycle)
system.victimcache.blockedCauses::no_mshrs         1500                       # number of times access was blocked (Count)
system.victimcache.blockedCauses::no_targets            0                       # number of times access was blocked (Count)
system.victimcache.avgBlocked::no_mshrs      9.192667                       # average number of cycles each access was blocked ((Cycle/Count))
system.victimcache.avgBlocked::no_targets          nan                       # average number of cycles each access was blocked ((Cycle/Count))
system.victimcache.writebacks::writebacks        13536                       # number of writebacks (Count)
system.victimcache.writebacks::total            13536                       # number of writebacks (Count)
system.victimcache.demandMshrMisses::cpu.data         6881                       # number of demand (read+write) MSHR misses (Count)
system.victimcache.demandMshrMisses::total         6881                       # number of demand (read+write) MSHR misses (Count)
system.victimcache.overallMshrMisses::cpu.data         6881                       # number of overall MSHR misses (Count)
system.victimcache.overallMshrMisses::total         6881                       # number of overall MSHR misses (Count)
system.victimcache.demandMshrMissLatency::cpu.data    228114000                       # number of demand (read+write) MSHR miss ticks (Tick)
system.victimcache.demandMshrMissLatency::total    228114000                       # number of demand (read+write) MSHR miss ticks (Tick)
system.victimcache.overallMshrMissLatency::cpu.data    228114000                       # number of overall MSHR miss ticks (Tick)
system.victimcache.overallMshrMissLatency::total    228114000                       # number of overall MSHR miss ticks (Tick)
system.victimcache.demandMshrMissRate::cpu.data     0.119393                       # mshr miss ratio for demand accesses (Ratio)
system.victimcache.demandMshrMissRate::total     0.119393                       # mshr miss ratio for demand accesses (Ratio)
system.victimcache.overallMshrMissRate::cpu.data     0.119393                       # mshr miss ratio for overall accesses (Ratio)
system.victimcache.overallMshrMissRate::total     0.119393                       # mshr miss ratio for overall accesses (Ratio)
system.victimcache.demandAvgMshrMissLatency::cpu.data 33151.286150                       # average overall mshr miss latency ((Cycle/Count))
system.victimcache.demandAvgMshrMissLatency::total 33151.286150                       # average overall mshr miss latency ((Cycle/Count))
system.victimcache.overallAvgMshrMissLatency::cpu.data 33151.286150                       # average overall mshr miss latency ((Cycle/Count))
system.victimcache.overallAvgMshrMissLatency::total 33151.286150                       # average overall mshr miss latency ((Cycle/Count))
system.victimcache.replacements                  6655                       # number of replacements (Count)
system.victimcache.ReadExReq.hits::cpu.data            1                       # number of ReadExReq hits (Count)
system.victimcache.ReadExReq.hits::total            1                       # number of ReadExReq hits (Count)
system.victimcache.ReadExReq.misses::cpu.data          114                       # number of ReadExReq misses (Count)
system.victimcache.ReadExReq.misses::total          114                       # number of ReadExReq misses (Count)
system.victimcache.ReadExReq.missLatency::cpu.data     11788000                       # number of ReadExReq miss ticks (Tick)
system.victimcache.ReadExReq.missLatency::total     11788000                       # number of ReadExReq miss ticks (Tick)
system.victimcache.ReadExReq.accesses::cpu.data          115                       # number of ReadExReq accesses(hits+misses) (Count)
system.victimcache.ReadExReq.accesses::total          115                       # number of ReadExReq accesses(hits+misses) (Count)
system.victimcache.ReadExReq.missRate::cpu.data     0.991304                       # miss rate for ReadExReq accesses (Ratio)
system.victimcache.ReadExReq.missRate::total     0.991304                       # miss rate for ReadExReq accesses (Ratio)
system.victimcache.ReadExReq.avgMissLatency::cpu.data 103403.508772                       # average ReadExReq miss latency ((Tick/Count))
system.victimcache.ReadExReq.avgMissLatency::total 103403.508772                       # average ReadExReq miss latency ((Tick/Count))
system.victimcache.ReadExReq.mshrMisses::cpu.data          114                       # number of ReadExReq MSHR misses (Count)
system.victimcache.ReadExReq.mshrMisses::total          114                       # number of ReadExReq MSHR misses (Count)
system.victimcache.ReadExReq.mshrMissLatency::cpu.data     11788000                       # number of ReadExReq MSHR miss ticks (Tick)
system.victimcache.ReadExReq.mshrMissLatency::total     11788000                       # number of ReadExReq MSHR miss ticks (Tick)
system.victimcache.ReadExReq.mshrMissRate::cpu.data     0.991304                       # mshr miss rate for ReadExReq accesses (Ratio)
system.victimcache.ReadExReq.mshrMissRate::total     0.991304                       # mshr miss rate for ReadExReq accesses (Ratio)
system.victimcache.ReadExReq.avgMshrMissLatency::cpu.data 103403.508772                       # average ReadExReq mshr miss latency ((Tick/Count))
system.victimcache.ReadExReq.avgMshrMissLatency::total 103403.508772                       # average ReadExReq mshr miss latency ((Tick/Count))
system.victimcache.ReadSharedReq.hits::cpu.data        50751                       # number of ReadSharedReq hits (Count)
system.victimcache.ReadSharedReq.hits::total        50751                       # number of ReadSharedReq hits (Count)
system.victimcache.ReadSharedReq.misses::cpu.data         6767                       # number of ReadSharedReq misses (Count)
system.victimcache.ReadSharedReq.misses::total         6767                       # number of ReadSharedReq misses (Count)
system.victimcache.ReadSharedReq.missLatency::cpu.data    216326000                       # number of ReadSharedReq miss ticks (Tick)
system.victimcache.ReadSharedReq.missLatency::total    216326000                       # number of ReadSharedReq miss ticks (Tick)
system.victimcache.ReadSharedReq.accesses::cpu.data        57518                       # number of ReadSharedReq accesses(hits+misses) (Count)
system.victimcache.ReadSharedReq.accesses::total        57518                       # number of ReadSharedReq accesses(hits+misses) (Count)
system.victimcache.ReadSharedReq.missRate::cpu.data     0.117650                       # miss rate for ReadSharedReq accesses (Ratio)
system.victimcache.ReadSharedReq.missRate::total     0.117650                       # miss rate for ReadSharedReq accesses (Ratio)
system.victimcache.ReadSharedReq.avgMissLatency::cpu.data 31967.784838                       # average ReadSharedReq miss latency ((Tick/Count))
system.victimcache.ReadSharedReq.avgMissLatency::total 31967.784838                       # average ReadSharedReq miss latency ((Tick/Count))
system.victimcache.ReadSharedReq.mshrMisses::cpu.data         6767                       # number of ReadSharedReq MSHR misses (Count)
system.victimcache.ReadSharedReq.mshrMisses::total         6767                       # number of ReadSharedReq MSHR misses (Count)
system.victimcache.ReadSharedReq.mshrMissLatency::cpu.data    216326000                       # number of ReadSharedReq MSHR miss ticks (Tick)
system.victimcache.ReadSharedReq.mshrMissLatency::total    216326000                       # number of ReadSharedReq MSHR miss ticks (Tick)
system.victimcache.ReadSharedReq.mshrMissRate::cpu.data     0.117650                       # mshr miss rate for ReadSharedReq accesses (Ratio)
system.victimcache.ReadSharedReq.mshrMissRate::total     0.117650                       # mshr miss rate for ReadSharedReq accesses (Ratio)
system.victimcache.ReadSharedReq.avgMshrMissLatency::cpu.data 31967.784838                       # average ReadSharedReq mshr miss latency ((Tick/Count))
system.victimcache.ReadSharedReq.avgMshrMissLatency::total 31967.784838                       # average ReadSharedReq mshr miss latency ((Tick/Count))
system.victimcache.UpgradeReq.misses::cpu.data           31                       # number of UpgradeReq misses (Count)
system.victimcache.UpgradeReq.misses::total           31                       # number of UpgradeReq misses (Count)
system.victimcache.UpgradeReq.accesses::cpu.data           31                       # number of UpgradeReq accesses(hits+misses) (Count)
system.victimcache.UpgradeReq.accesses::total           31                       # number of UpgradeReq accesses(hits+misses) (Count)
system.victimcache.UpgradeReq.missRate::cpu.data            1                       # miss rate for UpgradeReq accesses (Ratio)
system.victimcache.UpgradeReq.missRate::total            1                       # miss rate for UpgradeReq accesses (Ratio)
system.victimcache.UpgradeReq.mshrMisses::cpu.data           31                       # number of UpgradeReq MSHR misses (Count)
system.victimcache.UpgradeReq.mshrMisses::total           31                       # number of UpgradeReq MSHR misses (Count)
system.victimcache.UpgradeReq.mshrMissLatency::cpu.data      1641000                       # number of UpgradeReq MSHR miss ticks (Tick)
system.victimcache.UpgradeReq.mshrMissLatency::total      1641000                       # number of UpgradeReq MSHR miss ticks (Tick)
system.victimcache.UpgradeReq.mshrMissRate::cpu.data            1                       # mshr miss rate for UpgradeReq accesses (Ratio)
system.victimcache.UpgradeReq.mshrMissRate::total            1                       # mshr miss rate for UpgradeReq accesses (Ratio)
system.victimcache.UpgradeReq.avgMshrMissLatency::cpu.data 52935.483871                       # average UpgradeReq mshr miss latency ((Tick/Count))
system.victimcache.UpgradeReq.avgMshrMissLatency::total 52935.483871                       # average UpgradeReq mshr miss latency ((Tick/Count))
system.victimcache.WritebackClean.hits::writebacks        57384                       # number of WritebackClean hits (Count)
system.victimcache.WritebackClean.hits::total        57384                       # number of WritebackClean hits (Count)
system.victimcache.WritebackClean.accesses::writebacks        57384                       # number of WritebackClean accesses(hits+misses) (Count)
system.victimcache.WritebackClean.accesses::total        57384                       # number of WritebackClean accesses(hits+misses) (Count)
system.victimcache.WritebackDirty.hits::writebacks           31                       # number of WritebackDirty hits (Count)
system.victimcache.WritebackDirty.hits::total           31                       # number of WritebackDirty hits (Count)
system.victimcache.WritebackDirty.accesses::writebacks           31                       # number of WritebackDirty accesses(hits+misses) (Count)
system.victimcache.WritebackDirty.accesses::total           31                       # number of WritebackDirty accesses(hits+misses) (Count)
system.victimcache.power_state.pwrStateResidencyTicks::UNDEFINED    242334000                       # Cumulative time (in ticks) in various power states (Tick)
system.victimcache.tags.tagsInUse            5.110404                       # Average ticks per tags in use ((Tick/Count))
system.victimcache.tags.totalRefs              108167                       # Total number of references to valid blocks. (Count)
system.victimcache.tags.sampledRefs             57415                       # Sample count of references to valid blocks. (Count)
system.victimcache.tags.avgRefs              1.883950                       # Average number of references to valid blocks. ((Count/Count))
system.victimcache.tags.warmupTick           11090000                       # The tick when the warmup percentage was hit. (Tick)
system.victimcache.tags.occupancies::writebacks     5.110404                       # Average occupied blocks per tick, per requestor ((Count/Tick))
system.victimcache.tags.avgOccs::writebacks     0.638801                       # Average percentage of cache occupancy ((Ratio/Tick))
system.victimcache.tags.avgOccs::total       0.638801                       # Average percentage of cache occupancy ((Ratio/Tick))
system.victimcache.tags.occupanciesTaskId::1024            8                       # Occupied blocks per task id (Count)
system.victimcache.tags.ageTaskId_1024::0            8                       # Occupied blocks per task id, per block age (Count)
system.victimcache.tags.ratioOccsTaskId::1024            1                       # Ratio of occupied blocks and all blocks, per task id (Ratio)
system.victimcache.tags.tagAccesses            978047                       # Number of tag accesses (Count)
system.victimcache.tags.dataAccesses           978047                       # Number of data accesses (Count)
system.victimcache.tags.power_state.pwrStateResidencyTicks::UNDEFINED    242334000                       # Cumulative time (in ticks) in various power states (Tick)
system.workload.inst.arm                            0                       # number of arm instructions executed (Count)
system.workload.inst.quiesce                        0                       # number of quiesce instructions executed (Count)

---------- End Simulation Statistics   ----------
