
---------- Begin Simulation Statistics ----------
simSeconds                                   0.000424                       # Number of seconds simulated (Second)
simTicks                                    423519000                       # Number of ticks simulated (Tick)
finalTick                                   423519000                       # Number of ticks from beginning of simulation (restored from checkpoints and never reset) (Tick)
simFreq                                  1000000000000                       # The number of ticks per simulated second ((Tick/Second))
hostSeconds                                      1.96                       # Real time elapsed on the host (Second)
hostTickRate                                216356203                       # The number of ticks simulated per host second (ticks/s) ((Tick/Second))
hostMemory                                     645992                       # Number of bytes of host memory used (Byte)
simInsts                                       123099                       # Number of instructions simulated (Count)
simOps                                         245702                       # Number of ops (including micro ops) simulated (Count)
hostInstRate                                    62881                       # Simulator instruction rate (inst/s) ((Count/Second))
hostOpRate                                     125508                       # Simulator op (including micro ops) rate (op/s) ((Count/Second))
system.clk_domain.clock                          1000                       # Clock period in ticks (Tick)
system.clk_domain.voltage_domain.voltage            1                       # Voltage in Volts (Volt)
system.cpu.numCycles                           423520                       # Number of cpu cycles simulated (Cycle)
system.cpu.numWorkItemsStarted                      0                       # Number of work items this cpu started (Count)
system.cpu.numWorkItemsCompleted                    0                       # Number of work items this cpu completed (Count)
system.cpu.instsAdded                          259077                       # Number of instructions added to the IQ (excludes non-spec) (Count)
system.cpu.nonSpecInstsAdded                        1                       # Number of non-speculative instructions added to the IQ (Count)
system.cpu.instsIssued                         827298                       # Number of instructions issued (Count)
system.cpu.squashedInstsIssued                     49                       # Number of squashed instructions issued (Count)
system.cpu.squashedInstsExamined                13370                       # Number of squashed instructions iterated over during squash; mainly for profiling (Count)
system.cpu.squashedOperandsExamined             15012                       # Number of squashed operands that are examined and possibly removed from graph (Count)
system.cpu.squashedNonSpecRemoved                   1                       # Number of squashed non-spec instructions that were removed (Count)
system.cpu.numIssuedDist::samples              403130                       # Number of insts issued each cycle (Count)
system.cpu.numIssuedDist::mean               2.052187                       # Number of insts issued each cycle (Count)
system.cpu.numIssuedDist::stdev              2.092830                       # Number of insts issued each cycle (Count)
system.cpu.numIssuedDist::underflows                0      0.00%      0.00% # Number of insts issued each cycle (Count)
system.cpu.numIssuedDist::0                    166525     41.31%     41.31% # Number of insts issued each cycle (Count)
system.cpu.numIssuedDist::1                     41965     10.41%     51.72% # Number of insts issued each cycle (Count)
system.cpu.numIssuedDist::2                     24485      6.07%     57.79% # Number of insts issued each cycle (Count)
system.cpu.numIssuedDist::3                     16008      3.97%     61.76% # Number of insts issued each cycle (Count)
system.cpu.numIssuedDist::4                    103709     25.73%     87.49% # Number of insts issued each cycle (Count)
system.cpu.numIssuedDist::5                     38305      9.50%     96.99% # Number of insts issued each cycle (Count)
system.cpu.numIssuedDist::6                      6141      1.52%     98.51% # Number of insts issued each cycle (Count)
system.cpu.numIssuedDist::7                      2804      0.70%     99.21% # Number of insts issued each cycle (Count)
system.cpu.numIssuedDist::8                      3188      0.79%    100.00% # Number of insts issued each cycle (Count)
system.cpu.numIssuedDist::overflows                 0      0.00%    100.00% # Number of insts issued each cycle (Count)
system.cpu.numIssuedDist::min_value                 0                       # Number of insts issued each cycle (Count)
system.cpu.numIssuedDist::max_value                 8                       # Number of insts issued each cycle (Count)
system.cpu.numIssuedDist::total                403130                       # Number of insts issued each cycle (Count)
system.cpu.statFuBusy::No_OpClass                   0      0.00%      0.00% # attempts to use FU when none available (Count)
system.cpu.statFuBusy::IntAlu                     260      0.20%      0.20% # attempts to use FU when none available (Count)
system.cpu.statFuBusy::IntMult                      0      0.00%      0.20% # attempts to use FU when none available (Count)
system.cpu.statFuBusy::IntDiv                       0      0.00%      0.20% # attempts to use FU when none available (Count)
system.cpu.statFuBusy::FloatAdd                     0      0.00%      0.20% # attempts to use FU when none available (Count)
system.cpu.statFuBusy::FloatCmp                     0      0.00%      0.20% # attempts to use FU when none available (Count)
system.cpu.statFuBusy::FloatCvt                     0      0.00%      0.20% # attempts to use FU when none available (Count)
system.cpu.statFuBusy::FloatMult                    0      0.00%      0.20% # attempts to use FU when none available (Count)
system.cpu.statFuBusy::FloatMultAcc                 0      0.00%      0.20% # attempts to use FU when none available (Count)
system.cpu.statFuBusy::FloatDiv                     0      0.00%      0.20% # attempts to use FU when none available (Count)
system.cpu.statFuBusy::FloatMisc                    0      0.00%      0.20% # attempts to use FU when none available (Count)
system.cpu.statFuBusy::FloatSqrt                    0      0.00%      0.20% # attempts to use FU when none available (Count)
system.cpu.statFuBusy::SimdAdd                      0      0.00%      0.20% # attempts to use FU when none available (Count)
system.cpu.statFuBusy::SimdAddAcc                   0      0.00%      0.20% # attempts to use FU when none available (Count)
system.cpu.statFuBusy::SimdAlu                     11      0.01%      0.21% # attempts to use FU when none available (Count)
system.cpu.statFuBusy::SimdCmp                      0      0.00%      0.21% # attempts to use FU when none available (Count)
system.cpu.statFuBusy::SimdCvt                      1      0.00%      0.21% # attempts to use FU when none available (Count)
system.cpu.statFuBusy::SimdMisc                     2      0.00%      0.21% # attempts to use FU when none available (Count)
system.cpu.statFuBusy::SimdMult                     0      0.00%      0.21% # attempts to use FU when none available (Count)
system.cpu.statFuBusy::SimdMultAcc                  0      0.00%      0.21% # attempts to use FU when none available (Count)
system.cpu.statFuBusy::SimdShift                    0      0.00%      0.21% # attempts to use FU when none available (Count)
system.cpu.statFuBusy::SimdShiftAcc                 0      0.00%      0.21% # attempts to use FU when none available (Count)
system.cpu.statFuBusy::SimdDiv                      0      0.00%      0.21% # attempts to use FU when none available (Count)
system.cpu.statFuBusy::SimdSqrt                     0      0.00%      0.21% # attempts to use FU when none available (Count)
system.cpu.statFuBusy::SimdFloatAdd                 0      0.00%      0.21% # attempts to use FU when none available (Count)
system.cpu.statFuBusy::SimdFloatAlu                 0      0.00%      0.21% # attempts to use FU when none available (Count)
system.cpu.statFuBusy::SimdFloatCmp                 0      0.00%      0.21% # attempts to use FU when none available (Count)
system.cpu.statFuBusy::SimdFloatCvt                 0      0.00%      0.21% # attempts to use FU when none available (Count)
system.cpu.statFuBusy::SimdFloatDiv                 0      0.00%      0.21% # attempts to use FU when none available (Count)
system.cpu.statFuBusy::SimdFloatMisc                0      0.00%      0.21% # attempts to use FU when none available (Count)
system.cpu.statFuBusy::SimdFloatMult                0      0.00%      0.21% # attempts to use FU when none available (Count)
system.cpu.statFuBusy::SimdFloatMultAcc             0      0.00%      0.21% # attempts to use FU when none available (Count)
system.cpu.statFuBusy::SimdFloatSqrt                0      0.00%      0.21% # attempts to use FU when none available (Count)
system.cpu.statFuBusy::SimdReduceAdd                0      0.00%      0.21% # attempts to use FU when none available (Count)
system.cpu.statFuBusy::SimdReduceAlu                0      0.00%      0.21% # attempts to use FU when none available (Count)
system.cpu.statFuBusy::SimdReduceCmp                0      0.00%      0.21% # attempts to use FU when none available (Count)
system.cpu.statFuBusy::SimdFloatReduceAdd            0      0.00%      0.21% # attempts to use FU when none available (Count)
system.cpu.statFuBusy::SimdFloatReduceCmp            0      0.00%      0.21% # attempts to use FU when none available (Count)
system.cpu.statFuBusy::SimdAes                      0      0.00%      0.21% # attempts to use FU when none available (Count)
system.cpu.statFuBusy::SimdAesMix                   0      0.00%      0.21% # attempts to use FU when none available (Count)
system.cpu.statFuBusy::SimdSha1Hash                 0      0.00%      0.21% # attempts to use FU when none available (Count)
system.cpu.statFuBusy::SimdSha1Hash2                0      0.00%      0.21% # attempts to use FU when none available (Count)
system.cpu.statFuBusy::SimdSha256Hash               0      0.00%      0.21% # attempts to use FU when none available (Count)
system.cpu.statFuBusy::SimdSha256Hash2              0      0.00%      0.21% # attempts to use FU when none available (Count)
system.cpu.statFuBusy::SimdShaSigma2                0      0.00%      0.21% # attempts to use FU when none available (Count)
system.cpu.statFuBusy::SimdShaSigma3                0      0.00%      0.21% # attempts to use FU when none available (Count)
system.cpu.statFuBusy::SimdPredAlu                  0      0.00%      0.21% # attempts to use FU when none available (Count)
system.cpu.statFuBusy::MemRead                     41      0.03%      0.24% # attempts to use FU when none available (Count)
system.cpu.statFuBusy::MemWrite                    24      0.02%      0.26% # attempts to use FU when none available (Count)
system.cpu.statFuBusy::FloatMemRead            129843     99.73%     99.99% # attempts to use FU when none available (Count)
system.cpu.statFuBusy::FloatMemWrite               13      0.01%    100.00% # attempts to use FU when none available (Count)
system.cpu.statFuBusy::IprAccess                    0      0.00%    100.00% # attempts to use FU when none available (Count)
system.cpu.statFuBusy::InstPrefetch                 0      0.00%    100.00% # attempts to use FU when none available (Count)
system.cpu.statIssuedInstType_0::No_OpClass          664      0.08%      0.08% # Number of instructions issued per FU type, per thread (Count)
system.cpu.statIssuedInstType_0::IntAlu        102016     12.33%     12.41% # Number of instructions issued per FU type, per thread (Count)
system.cpu.statIssuedInstType_0::IntMult            5      0.00%     12.41% # Number of instructions issued per FU type, per thread (Count)
system.cpu.statIssuedInstType_0::IntDiv            22      0.00%     12.41% # Number of instructions issued per FU type, per thread (Count)
system.cpu.statIssuedInstType_0::FloatAdd          136      0.02%     12.43% # Number of instructions issued per FU type, per thread (Count)
system.cpu.statIssuedInstType_0::FloatCmp            0      0.00%     12.43% # Number of instructions issued per FU type, per thread (Count)
system.cpu.statIssuedInstType_0::FloatCvt            0      0.00%     12.43% # Number of instructions issued per FU type, per thread (Count)
system.cpu.statIssuedInstType_0::FloatMult            0      0.00%     12.43% # Number of instructions issued per FU type, per thread (Count)
system.cpu.statIssuedInstType_0::FloatMultAcc            0      0.00%     12.43% # Number of instructions issued per FU type, per thread (Count)
system.cpu.statIssuedInstType_0::FloatDiv            0      0.00%     12.43% # Number of instructions issued per FU type, per thread (Count)
system.cpu.statIssuedInstType_0::FloatMisc            0      0.00%     12.43% # Number of instructions issued per FU type, per thread (Count)
system.cpu.statIssuedInstType_0::FloatSqrt            0      0.00%     12.43% # Number of instructions issued per FU type, per thread (Count)
system.cpu.statIssuedInstType_0::SimdAdd            0      0.00%     12.43% # Number of instructions issued per FU type, per thread (Count)
system.cpu.statIssuedInstType_0::SimdAddAcc            0      0.00%     12.43% # Number of instructions issued per FU type, per thread (Count)
system.cpu.statIssuedInstType_0::SimdAlu          160      0.02%     12.45% # Number of instructions issued per FU type, per thread (Count)
system.cpu.statIssuedInstType_0::SimdCmp            0      0.00%     12.45% # Number of instructions issued per FU type, per thread (Count)
system.cpu.statIssuedInstType_0::SimdCvt           48      0.01%     12.46% # Number of instructions issued per FU type, per thread (Count)
system.cpu.statIssuedInstType_0::SimdMisc          218      0.03%     12.48% # Number of instructions issued per FU type, per thread (Count)
system.cpu.statIssuedInstType_0::SimdMult            0      0.00%     12.48% # Number of instructions issued per FU type, per thread (Count)
system.cpu.statIssuedInstType_0::SimdMultAcc            0      0.00%     12.48% # Number of instructions issued per FU type, per thread (Count)
system.cpu.statIssuedInstType_0::SimdShift            0      0.00%     12.48% # Number of instructions issued per FU type, per thread (Count)
system.cpu.statIssuedInstType_0::SimdShiftAcc            0      0.00%     12.48% # Number of instructions issued per FU type, per thread (Count)
system.cpu.statIssuedInstType_0::SimdDiv            0      0.00%     12.48% # Number of instructions issued per FU type, per thread (Count)
system.cpu.statIssuedInstType_0::SimdSqrt            0      0.00%     12.48% # Number of instructions issued per FU type, per thread (Count)
system.cpu.statIssuedInstType_0::SimdFloatAdd        73728      8.91%     21.39% # Number of instructions issued per FU type, per thread (Count)
system.cpu.statIssuedInstType_0::SimdFloatAlu            0      0.00%     21.39% # Number of instructions issued per FU type, per thread (Count)
system.cpu.statIssuedInstType_0::SimdFloatCmp            0      0.00%     21.39% # Number of instructions issued per FU type, per thread (Count)
system.cpu.statIssuedInstType_0::SimdFloatCvt            0      0.00%     21.39% # Number of instructions issued per FU type, per thread (Count)
system.cpu.statIssuedInstType_0::SimdFloatDiv            0      0.00%     21.39% # Number of instructions issued per FU type, per thread (Count)
system.cpu.statIssuedInstType_0::SimdFloatMisc            0      0.00%     21.39% # Number of instructions issued per FU type, per thread (Count)
system.cpu.statIssuedInstType_0::SimdFloatMult            0      0.00%     21.39% # Number of instructions issued per FU type, per thread (Count)
system.cpu.statIssuedInstType_0::SimdFloatMultAcc            0      0.00%     21.39% # Number of instructions issued per FU type, per thread (Count)
system.cpu.statIssuedInstType_0::SimdFloatSqrt            0      0.00%     21.39% # Number of instructions issued per FU type, per thread (Count)
system.cpu.statIssuedInstType_0::SimdReduceAdd            0      0.00%     21.39% # Number of instructions issued per FU type, per thread (Count)
system.cpu.statIssuedInstType_0::SimdReduceAlu            0      0.00%     21.39% # Number of instructions issued per FU type, per thread (Count)
system.cpu.statIssuedInstType_0::SimdReduceCmp            0      0.00%     21.39% # Number of instructions issued per FU type, per thread (Count)
system.cpu.statIssuedInstType_0::SimdFloatReduceAdd            0      0.00%     21.39% # Number of instructions issued per FU type, per thread (Count)
system.cpu.statIssuedInstType_0::SimdFloatReduceCmp            0      0.00%     21.39% # Number of instructions issued per FU type, per thread (Count)
system.cpu.statIssuedInstType_0::SimdAes            0      0.00%     21.39% # Number of instructions issued per FU type, per thread (Count)
system.cpu.statIssuedInstType_0::SimdAesMix            0      0.00%     21.39% # Number of instructions issued per FU type, per thread (Count)
system.cpu.statIssuedInstType_0::SimdSha1Hash            0      0.00%     21.39% # Number of instructions issued per FU type, per thread (Count)
system.cpu.statIssuedInstType_0::SimdSha1Hash2            0      0.00%     21.39% # Number of instructions issued per FU type, per thread (Count)
system.cpu.statIssuedInstType_0::SimdSha256Hash            0      0.00%     21.39% # Number of instructions issued per FU type, per thread (Count)
system.cpu.statIssuedInstType_0::SimdSha256Hash2            0      0.00%     21.39% # Number of instructions issued per FU type, per thread (Count)
system.cpu.statIssuedInstType_0::SimdShaSigma2            0      0.00%     21.39% # Number of instructions issued per FU type, per thread (Count)
system.cpu.statIssuedInstType_0::SimdShaSigma3            0      0.00%     21.39% # Number of instructions issued per FU type, per thread (Count)
system.cpu.statIssuedInstType_0::SimdPredAlu            0      0.00%     21.39% # Number of instructions issued per FU type, per thread (Count)
system.cpu.statIssuedInstType_0::MemRead         2934      0.35%     21.75% # Number of instructions issued per FU type, per thread (Count)
system.cpu.statIssuedInstType_0::MemWrite         1793      0.22%     21.97% # Number of instructions issued per FU type, per thread (Count)
system.cpu.statIssuedInstType_0::FloatMemRead       645029     77.97%     99.93% # Number of instructions issued per FU type, per thread (Count)
system.cpu.statIssuedInstType_0::FloatMemWrite          545      0.07%    100.00% # Number of instructions issued per FU type, per thread (Count)
system.cpu.statIssuedInstType_0::IprAccess            0      0.00%    100.00% # Number of instructions issued per FU type, per thread (Count)
system.cpu.statIssuedInstType_0::InstPrefetch            0      0.00%    100.00% # Number of instructions issued per FU type, per thread (Count)
system.cpu.statIssuedInstType_0::total         827298                       # Number of instructions issued per FU type, per thread (Count)
system.cpu.issueRate                         1.953386                       # Inst issue rate ((Count/Cycle))
system.cpu.fuBusy                              130195                       # FU busy when requested (Count)
system.cpu.fuBusyRate                        0.157374                       # FU busy rate (busy events/executed inst) ((Count/Count))
system.cpu.intInstQueueReads                   618092                       # Number of integer instruction queue reads (Count)
system.cpu.intInstQueueWrites                  123489                       # Number of integer instruction queue writes (Count)
system.cpu.intInstQueueWakeupAccesses          105602                       # Number of integer instruction queue wakeup accesses (Count)
system.cpu.fpInstQueueReads                   1569878                       # Number of floating instruction queue reads (Count)
system.cpu.fpInstQueueWrites                   148974                       # Number of floating instruction queue writes (Count)
system.cpu.fpInstQueueWakeupAccesses           148755                       # Number of floating instruction queue wakeup accesses (Count)
system.cpu.vecInstQueueReads                        0                       # Number of vector instruction queue reads (Count)
system.cpu.vecInstQueueWrites                       0                       # Number of vector instruction queue writes (Count)
system.cpu.vecInstQueueWakeupAccesses               0                       # Number of vector instruction queue wakeup accesses (Count)
system.cpu.intAluAccesses                      106955                       # Number of integer alu accesses (Count)
system.cpu.fpAluAccesses                       849874                       # Number of floating point alu accesses (Count)
system.cpu.vecAluAccesses                           0                       # Number of vector alu accesses (Count)
system.cpu.idleCycles                               0                       # Number of cycles IEW is idle (Cycle)
system.cpu.squashCycles                           606                       # Number of cycles IEW is squashing (Cycle)
system.cpu.blockCycles                          11208                       # Number of cycles IEW is blocking (Cycle)
system.cpu.unblockCycles                        58722                       # Number of cycles IEW is unblocking (Cycle)
system.cpu.dispatchedInsts                     259078                       # Number of instructions dispatched to IQ (Count)
system.cpu.dispSquashedInsts                       27                       # Number of squashed instructions skipped by dispatch (Count)
system.cpu.dispLoadInsts                        76917                       # Number of dispatched load instructions (Count)
system.cpu.dispStoreInsts                        2737                       # Number of dispatched store instructions (Count)
system.cpu.dispNonSpecInsts                         1                       # Number of dispatched non-speculative instructions (Count)
system.cpu.iqFullEvents                           151                       # Number of times the IQ has become full, causing a stall (Count)
system.cpu.lsqFullEvents                        58140                       # Number of times the LSQ has become full, causing a stall (Count)
system.cpu.memOrderViolationEvents                 16                       # Number of memory order violations (Count)
system.cpu.predictedTakenIncorrect                 47                       # Number of branches that were predicted taken incorrectly (Count)
system.cpu.predictedNotTakenIncorrect             646                       # Number of branches that were predicted not taken incorrectly (Count)
system.cpu.branchMispredicts                      693                       # Number of branch mispredicts detected at execute (Count)
system.cpu.numInsts                            826346                       # Number of executed instructions (Count)
system.cpu.numLoadInsts                        647792                       # Number of load instructions executed (Count)
system.cpu.numSquashedInsts                       952                       # Number of squashed instructions skipped in execute (Count)
system.cpu.numSwp                                   0                       # Number of swp insts executed (Count)
system.cpu.numNop                                   0                       # Number of nop insts executed (Count)
system.cpu.numRefs                             650033                       # Number of memory reference insts executed (Count)
system.cpu.numBranches                          10675                       # Number of branches executed (Count)
system.cpu.numStoreInsts                         2241                       # Number of stores executed (Count)
system.cpu.numRate                           1.951138                       # Inst execution rate ((Count/Cycle))
system.cpu.instsToCommit                       254752                       # Cumulative count of insts sent to commit (Count)
system.cpu.writebackCount                      254357                       # Cumulative count of insts written-back (Count)
system.cpu.producerInst                        223693                       # Number of instructions producing a value (Count)
system.cpu.consumerInst                        331602                       # Number of instructions consuming a value (Count)
system.cpu.wbRate                            0.600578                       # Insts written-back per cycle ((Count/Cycle))
system.cpu.wbFanout                          0.674583                       # Average fanout of values written-back ((Count/Count))
system.cpu.timesIdled                             295                       # Number of times that the entire CPU went into an idle state and unscheduled itself (Count)
system.cpu.idleCycles                           20390                       # Total number of cycles that the CPU has spent unscheduled due to idling (Cycle)
system.cpu.committedInsts                      123099                       # Number of Instructions Simulated (Count)
system.cpu.committedOps                        245702                       # Number of Ops (including micro ops) Simulated (Count)
system.cpu.cpi                               3.440483                       # CPI: Cycles Per Instruction ((Cycle/Count))
system.cpu.totalCpi                          3.440483                       # CPI: Total CPI of All Threads ((Cycle/Count))
system.cpu.ipc                               0.290657                       # IPC: Instructions Per Cycle ((Count/Cycle))
system.cpu.totalIpc                          0.290657                       # IPC: Total IPC of All Threads ((Count/Cycle))
system.cpu.intRegfileReads                    1414691                       # Number of integer regfile reads (Count)
system.cpu.intRegfileWrites                     92976                       # Number of integer regfile writes (Count)
system.cpu.fpRegfileReads                      222730                       # Number of floating regfile reads (Count)
system.cpu.fpRegfileWrites                     148178                       # Number of floating regfile writes (Count)
system.cpu.ccRegfileReads                       60361                       # number of cc regfile reads (Count)
system.cpu.ccRegfileWrites                      56538                       # number of cc regfile writes (Count)
system.cpu.miscRegfileReads                    672448                       # number of misc regfile reads (Count)
system.cpu.MemDepUnit__0.insertedLoads          76917                       # Number of loads inserted to the mem dependence unit. (Count)
system.cpu.MemDepUnit__0.insertedStores          2737                       # Number of stores inserted to the mem dependence unit. (Count)
system.cpu.MemDepUnit__0.conflictingLoads           24                       # Number of conflicting loads. (Count)
system.cpu.MemDepUnit__0.conflictingStores            3                       # Number of conflicting stores. (Count)
system.cpu.MemDepUnit__1.insertedLoads              0                       # Number of loads inserted to the mem dependence unit. (Count)
system.cpu.MemDepUnit__1.insertedStores             0                       # Number of stores inserted to the mem dependence unit. (Count)
system.cpu.MemDepUnit__1.conflictingLoads            0                       # Number of conflicting loads. (Count)
system.cpu.MemDepUnit__1.conflictingStores            0                       # Number of conflicting stores. (Count)
system.cpu.MemDepUnit__2.insertedLoads              0                       # Number of loads inserted to the mem dependence unit. (Count)
system.cpu.MemDepUnit__2.insertedStores             0                       # Number of stores inserted to the mem dependence unit. (Count)
system.cpu.MemDepUnit__2.conflictingLoads            0                       # Number of conflicting loads. (Count)
system.cpu.MemDepUnit__2.conflictingStores            0                       # Number of conflicting stores. (Count)
system.cpu.MemDepUnit__3.insertedLoads              0                       # Number of loads inserted to the mem dependence unit. (Count)
system.cpu.MemDepUnit__3.insertedStores             0                       # Number of stores inserted to the mem dependence unit. (Count)
system.cpu.MemDepUnit__3.conflictingLoads            0                       # Number of conflicting loads. (Count)
system.cpu.MemDepUnit__3.conflictingStores            0                       # Number of conflicting stores. (Count)
system.cpu.branchPred.lookups                   12336                       # Number of BP lookups (Count)
system.cpu.branchPred.condPredicted             11072                       # Number of conditional branches predicted (Count)
system.cpu.branchPred.condIncorrect               693                       # Number of conditional branches incorrect (Count)
system.cpu.branchPred.BTBLookups                10082                       # Number of BTB lookups (Count)
system.cpu.branchPred.BTBHits                    9399                       # Number of BTB hits (Count)
system.cpu.branchPred.BTBHitRatio            0.932256                       # BTB Hit Ratio (Ratio)
system.cpu.branchPred.RASUsed                     280                       # Number of times the RAS was used to get a target. (Count)
system.cpu.branchPred.RASIncorrect                  0                       # Number of incorrect RAS predictions. (Count)
system.cpu.branchPred.indirectLookups             352                       # Number of indirect predictor lookups. (Count)
system.cpu.branchPred.indirectHits                 13                       # Number of indirect target hits. (Count)
system.cpu.branchPred.indirectMisses              339                       # Number of indirect misses. (Count)
system.cpu.branchPred.indirectMispredicted           95                       # Number of mispredicted indirect branches. (Count)
system.cpu.commit.commitSquashedInsts           13166                       # The number of squashed insts skipped by commit (Count)
system.cpu.commit.branchMispredicts               579                       # The number of times a branch was mispredicted (Count)
system.cpu.commit.numCommittedDist::samples       401011                       # Number of insts commited each cycle (Count)
system.cpu.commit.numCommittedDist::mean     0.612706                       # Number of insts commited each cycle (Count)
system.cpu.commit.numCommittedDist::stdev     1.503096                       # Number of insts commited each cycle (Count)
system.cpu.commit.numCommittedDist::underflows            0      0.00%      0.00% # Number of insts commited each cycle (Count)
system.cpu.commit.numCommittedDist::0          305640     76.22%     76.22% # Number of insts commited each cycle (Count)
system.cpu.commit.numCommittedDist::1           28740      7.17%     83.38% # Number of insts commited each cycle (Count)
system.cpu.commit.numCommittedDist::2           47572     11.86%     95.25% # Number of insts commited each cycle (Count)
system.cpu.commit.numCommittedDist::3            2550      0.64%     95.88% # Number of insts commited each cycle (Count)
system.cpu.commit.numCommittedDist::4             551      0.14%     96.02% # Number of insts commited each cycle (Count)
system.cpu.commit.numCommittedDist::5            1448      0.36%     96.38% # Number of insts commited each cycle (Count)
system.cpu.commit.numCommittedDist::6            5625      1.40%     97.78% # Number of insts commited each cycle (Count)
system.cpu.commit.numCommittedDist::7             106      0.03%     97.81% # Number of insts commited each cycle (Count)
system.cpu.commit.numCommittedDist::8            8779      2.19%    100.00% # Number of insts commited each cycle (Count)
system.cpu.commit.numCommittedDist::overflows            0      0.00%    100.00% # Number of insts commited each cycle (Count)
system.cpu.commit.numCommittedDist::min_value            0                       # Number of insts commited each cycle (Count)
system.cpu.commit.numCommittedDist::max_value            8                       # Number of insts commited each cycle (Count)
system.cpu.commit.numCommittedDist::total       401011                       # Number of insts commited each cycle (Count)
system.cpu.commit.instsCommitted               123099                       # Number of instructions committed (Count)
system.cpu.commit.opsCommitted                 245702                       # Number of ops (including micro ops) committed (Count)
system.cpu.commit.memRefs                       76934                       # Number of memory references committed (Count)
system.cpu.commit.loads                         75288                       # Number of loads committed (Count)
system.cpu.commit.amos                              0                       # Number of atomic instructions committed (Count)
system.cpu.commit.membars                           0                       # Number of memory barriers committed (Count)
system.cpu.commit.branches                       9936                       # Number of branches committed (Count)
system.cpu.commit.vectorInstructions                0                       # Number of committed Vector instructions. (Count)
system.cpu.commit.floating                     148624                       # Number of committed floating point instructions. (Count)
system.cpu.commit.integer                      171222                       # Number of committed integer instructions. (Count)
system.cpu.commit.functionCalls                   150                       # Number of function calls committed. (Count)
system.cpu.commit.committedInstType_0::No_OpClass          195      0.08%      0.08% # Class of committed instruction (Count)
system.cpu.commit.committedInstType_0::IntAlu        94327     38.39%     38.47% # Class of committed instruction (Count)
system.cpu.commit.committedInstType_0::IntMult            5      0.00%     38.47% # Class of committed instruction (Count)
system.cpu.commit.committedInstType_0::IntDiv           21      0.01%     38.48% # Class of committed instruction (Count)
system.cpu.commit.committedInstType_0::FloatAdd          135      0.05%     38.54% # Class of committed instruction (Count)
system.cpu.commit.committedInstType_0::FloatCmp            0      0.00%     38.54% # Class of committed instruction (Count)
system.cpu.commit.committedInstType_0::FloatCvt            0      0.00%     38.54% # Class of committed instruction (Count)
system.cpu.commit.committedInstType_0::FloatMult            0      0.00%     38.54% # Class of committed instruction (Count)
system.cpu.commit.committedInstType_0::FloatMultAcc            0      0.00%     38.54% # Class of committed instruction (Count)
system.cpu.commit.committedInstType_0::FloatDiv            0      0.00%     38.54% # Class of committed instruction (Count)
system.cpu.commit.committedInstType_0::FloatMisc            0      0.00%     38.54% # Class of committed instruction (Count)
system.cpu.commit.committedInstType_0::FloatSqrt            0      0.00%     38.54% # Class of committed instruction (Count)
system.cpu.commit.committedInstType_0::SimdAdd            0      0.00%     38.54% # Class of committed instruction (Count)
system.cpu.commit.committedInstType_0::SimdAddAcc            0      0.00%     38.54% # Class of committed instruction (Count)
system.cpu.commit.committedInstType_0::SimdAlu           96      0.04%     38.57% # Class of committed instruction (Count)
system.cpu.commit.committedInstType_0::SimdCmp            0      0.00%     38.57% # Class of committed instruction (Count)
system.cpu.commit.committedInstType_0::SimdCvt           46      0.02%     38.59% # Class of committed instruction (Count)
system.cpu.commit.committedInstType_0::SimdMisc          215      0.09%     38.68% # Class of committed instruction (Count)
system.cpu.commit.committedInstType_0::SimdMult            0      0.00%     38.68% # Class of committed instruction (Count)
system.cpu.commit.committedInstType_0::SimdMultAcc            0      0.00%     38.68% # Class of committed instruction (Count)
system.cpu.commit.committedInstType_0::SimdShift            0      0.00%     38.68% # Class of committed instruction (Count)
system.cpu.commit.committedInstType_0::SimdShiftAcc            0      0.00%     38.68% # Class of committed instruction (Count)
system.cpu.commit.committedInstType_0::SimdDiv            0      0.00%     38.68% # Class of committed instruction (Count)
system.cpu.commit.committedInstType_0::SimdSqrt            0      0.00%     38.68% # Class of committed instruction (Count)
system.cpu.commit.committedInstType_0::SimdFloatAdd        73728     30.01%     68.69% # Class of committed instruction (Count)
system.cpu.commit.committedInstType_0::SimdFloatAlu            0      0.00%     68.69% # Class of committed instruction (Count)
system.cpu.commit.committedInstType_0::SimdFloatCmp            0      0.00%     68.69% # Class of committed instruction (Count)
system.cpu.commit.committedInstType_0::SimdFloatCvt            0      0.00%     68.69% # Class of committed instruction (Count)
system.cpu.commit.committedInstType_0::SimdFloatDiv            0      0.00%     68.69% # Class of committed instruction (Count)
system.cpu.commit.committedInstType_0::SimdFloatMisc            0      0.00%     68.69% # Class of committed instruction (Count)
system.cpu.commit.committedInstType_0::SimdFloatMult            0      0.00%     68.69% # Class of committed instruction (Count)
system.cpu.commit.committedInstType_0::SimdFloatMultAcc            0      0.00%     68.69% # Class of committed instruction (Count)
system.cpu.commit.committedInstType_0::SimdFloatSqrt            0      0.00%     68.69% # Class of committed instruction (Count)
system.cpu.commit.committedInstType_0::SimdReduceAdd            0      0.00%     68.69% # Class of committed instruction (Count)
system.cpu.commit.committedInstType_0::SimdReduceAlu            0      0.00%     68.69% # Class of committed instruction (Count)
system.cpu.commit.committedInstType_0::SimdReduceCmp            0      0.00%     68.69% # Class of committed instruction (Count)
system.cpu.commit.committedInstType_0::SimdFloatReduceAdd            0      0.00%     68.69% # Class of committed instruction (Count)
system.cpu.commit.committedInstType_0::SimdFloatReduceCmp            0      0.00%     68.69% # Class of committed instruction (Count)
system.cpu.commit.committedInstType_0::SimdAes            0      0.00%     68.69% # Class of committed instruction (Count)
system.cpu.commit.committedInstType_0::SimdAesMix            0      0.00%     68.69% # Class of committed instruction (Count)
system.cpu.commit.committedInstType_0::SimdSha1Hash            0      0.00%     68.69% # Class of committed instruction (Count)
system.cpu.commit.committedInstType_0::SimdSha1Hash2            0      0.00%     68.69% # Class of committed instruction (Count)
system.cpu.commit.committedInstType_0::SimdSha256Hash            0      0.00%     68.69% # Class of committed instruction (Count)
system.cpu.commit.committedInstType_0::SimdSha256Hash2            0      0.00%     68.69% # Class of committed instruction (Count)
system.cpu.commit.committedInstType_0::SimdShaSigma2            0      0.00%     68.69% # Class of committed instruction (Count)
system.cpu.commit.committedInstType_0::SimdShaSigma3            0      0.00%     68.69% # Class of committed instruction (Count)
system.cpu.commit.committedInstType_0::SimdPredAlu            0      0.00%     68.69% # Class of committed instruction (Count)
system.cpu.commit.committedInstType_0::MemRead         1498      0.61%     69.30% # Class of committed instruction (Count)
system.cpu.commit.committedInstType_0::MemWrite         1171      0.48%     69.77% # Class of committed instruction (Count)
system.cpu.commit.committedInstType_0::FloatMemRead        73790     30.03%     99.81% # Class of committed instruction (Count)
system.cpu.commit.committedInstType_0::FloatMemWrite          475      0.19%    100.00% # Class of committed instruction (Count)
system.cpu.commit.committedInstType_0::IprAccess            0      0.00%    100.00% # Class of committed instruction (Count)
system.cpu.commit.committedInstType_0::InstPrefetch            0      0.00%    100.00% # Class of committed instruction (Count)
system.cpu.commit.committedInstType_0::total       245702                       # Class of committed instruction (Count)
system.cpu.commit.commitEligibleSamples          8779                       # number cycles where commit BW limit reached (Cycle)
system.cpu.dcache.demandHits::cpu.data          15732                       # number of demand (read+write) hits (Count)
system.cpu.dcache.demandHits::total             15732                       # number of demand (read+write) hits (Count)
system.cpu.dcache.overallHits::cpu.data         15732                       # number of overall hits (Count)
system.cpu.dcache.overallHits::total            15732                       # number of overall hits (Count)
system.cpu.dcache.demandMisses::cpu.data        66749                       # number of demand (read+write) misses (Count)
system.cpu.dcache.demandMisses::total           66749                       # number of demand (read+write) misses (Count)
system.cpu.dcache.overallMisses::cpu.data        66749                       # number of overall misses (Count)
system.cpu.dcache.overallMisses::total          66749                       # number of overall misses (Count)
system.cpu.dcache.demandMissLatency::cpu.data   2047399000                       # number of demand (read+write) miss ticks (Tick)
system.cpu.dcache.demandMissLatency::total   2047399000                       # number of demand (read+write) miss ticks (Tick)
system.cpu.dcache.overallMissLatency::cpu.data   2047399000                       # number of overall miss ticks (Tick)
system.cpu.dcache.overallMissLatency::total   2047399000                       # number of overall miss ticks (Tick)
system.cpu.dcache.demandAccesses::cpu.data        82481                       # number of demand (read+write) accesses (Count)
system.cpu.dcache.demandAccesses::total         82481                       # number of demand (read+write) accesses (Count)
system.cpu.dcache.overallAccesses::cpu.data        82481                       # number of overall (read+write) accesses (Count)
system.cpu.dcache.overallAccesses::total        82481                       # number of overall (read+write) accesses (Count)
system.cpu.dcache.demandMissRate::cpu.data     0.809265                       # miss rate for demand accesses (Ratio)
system.cpu.dcache.demandMissRate::total      0.809265                       # miss rate for demand accesses (Ratio)
system.cpu.dcache.overallMissRate::cpu.data     0.809265                       # miss rate for overall accesses (Ratio)
system.cpu.dcache.overallMissRate::total     0.809265                       # miss rate for overall accesses (Ratio)
system.cpu.dcache.demandAvgMissLatency::cpu.data 30673.103717                       # average overall miss latency ((Cycle/Count))
system.cpu.dcache.demandAvgMissLatency::total 30673.103717                       # average overall miss latency ((Cycle/Count))
system.cpu.dcache.overallAvgMissLatency::cpu.data 30673.103717                       # average overall miss latency ((Cycle/Count))
system.cpu.dcache.overallAvgMissLatency::total 30673.103717                       # average overall miss latency ((Cycle/Count))
system.cpu.dcache.blockedCycles::no_mshrs       299442                       # number of cycles access was blocked (Cycle)
system.cpu.dcache.blockedCycles::no_targets            0                       # number of cycles access was blocked (Cycle)
system.cpu.dcache.blockedCauses::no_mshrs        46823                       # number of times access was blocked (Count)
system.cpu.dcache.blockedCauses::no_targets            0                       # number of times access was blocked (Count)
system.cpu.dcache.avgBlocked::no_mshrs       6.395190                       # average number of cycles each access was blocked ((Cycle/Count))
system.cpu.dcache.avgBlocked::no_targets          nan                       # average number of cycles each access was blocked ((Cycle/Count))
system.cpu.dcache.writebacks::writebacks        47484                       # number of writebacks (Count)
system.cpu.dcache.writebacks::total             47484                       # number of writebacks (Count)
system.cpu.dcache.demandMshrHits::cpu.data        18984                       # number of demand (read+write) MSHR hits (Count)
system.cpu.dcache.demandMshrHits::total         18984                       # number of demand (read+write) MSHR hits (Count)
system.cpu.dcache.overallMshrHits::cpu.data        18984                       # number of overall MSHR hits (Count)
system.cpu.dcache.overallMshrHits::total        18984                       # number of overall MSHR hits (Count)
system.cpu.dcache.demandMshrMisses::cpu.data        47765                       # number of demand (read+write) MSHR misses (Count)
system.cpu.dcache.demandMshrMisses::total        47765                       # number of demand (read+write) MSHR misses (Count)
system.cpu.dcache.overallMshrMisses::cpu.data        47765                       # number of overall MSHR misses (Count)
system.cpu.dcache.overallMshrMisses::total        47765                       # number of overall MSHR misses (Count)
system.cpu.dcache.demandMshrMissLatency::cpu.data   1433711363                       # number of demand (read+write) MSHR miss ticks (Tick)
system.cpu.dcache.demandMshrMissLatency::total   1433711363                       # number of demand (read+write) MSHR miss ticks (Tick)
system.cpu.dcache.overallMshrMissLatency::cpu.data   1433711363                       # number of overall MSHR miss ticks (Tick)
system.cpu.dcache.overallMshrMissLatency::total   1433711363                       # number of overall MSHR miss ticks (Tick)
system.cpu.dcache.demandMshrMissRate::cpu.data     0.579103                       # mshr miss ratio for demand accesses (Ratio)
system.cpu.dcache.demandMshrMissRate::total     0.579103                       # mshr miss ratio for demand accesses (Ratio)
system.cpu.dcache.overallMshrMissRate::cpu.data     0.579103                       # mshr miss ratio for overall accesses (Ratio)
system.cpu.dcache.overallMshrMissRate::total     0.579103                       # mshr miss ratio for overall accesses (Ratio)
system.cpu.dcache.demandAvgMshrMissLatency::cpu.data 30015.939768                       # average overall mshr miss latency ((Cycle/Count))
system.cpu.dcache.demandAvgMshrMissLatency::total 30015.939768                       # average overall mshr miss latency ((Cycle/Count))
system.cpu.dcache.overallAvgMshrMissLatency::cpu.data 30015.939768                       # average overall mshr miss latency ((Cycle/Count))
system.cpu.dcache.overallAvgMshrMissLatency::total 30015.939768                       # average overall mshr miss latency ((Cycle/Count))
system.cpu.dcache.replacements                  47484                       # number of replacements (Count)
system.cpu.dcache.ReadReq.hits::cpu.data        14230                       # number of ReadReq hits (Count)
system.cpu.dcache.ReadReq.hits::total           14230                       # number of ReadReq hits (Count)
system.cpu.dcache.ReadReq.misses::cpu.data        66604                       # number of ReadReq misses (Count)
system.cpu.dcache.ReadReq.misses::total         66604                       # number of ReadReq misses (Count)
system.cpu.dcache.ReadReq.missLatency::cpu.data   2032787000                       # number of ReadReq miss ticks (Tick)
system.cpu.dcache.ReadReq.missLatency::total   2032787000                       # number of ReadReq miss ticks (Tick)
system.cpu.dcache.ReadReq.accesses::cpu.data        80834                       # number of ReadReq accesses(hits+misses) (Count)
system.cpu.dcache.ReadReq.accesses::total        80834                       # number of ReadReq accesses(hits+misses) (Count)
system.cpu.dcache.ReadReq.missRate::cpu.data     0.823960                       # miss rate for ReadReq accesses (Ratio)
system.cpu.dcache.ReadReq.missRate::total     0.823960                       # miss rate for ReadReq accesses (Ratio)
system.cpu.dcache.ReadReq.avgMissLatency::cpu.data 30520.494265                       # average ReadReq miss latency ((Tick/Count))
system.cpu.dcache.ReadReq.avgMissLatency::total 30520.494265                       # average ReadReq miss latency ((Tick/Count))
system.cpu.dcache.ReadReq.mshrHits::cpu.data        18984                       # number of ReadReq MSHR hits (Count)
system.cpu.dcache.ReadReq.mshrHits::total        18984                       # number of ReadReq MSHR hits (Count)
system.cpu.dcache.ReadReq.mshrMisses::cpu.data        47620                       # number of ReadReq MSHR misses (Count)
system.cpu.dcache.ReadReq.mshrMisses::total        47620                       # number of ReadReq MSHR misses (Count)
system.cpu.dcache.ReadReq.mshrMissLatency::cpu.data   1419389363                       # number of ReadReq MSHR miss ticks (Tick)
system.cpu.dcache.ReadReq.mshrMissLatency::total   1419389363                       # number of ReadReq MSHR miss ticks (Tick)
system.cpu.dcache.ReadReq.mshrMissRate::cpu.data     0.589109                       # mshr miss rate for ReadReq accesses (Ratio)
system.cpu.dcache.ReadReq.mshrMissRate::total     0.589109                       # mshr miss rate for ReadReq accesses (Ratio)
system.cpu.dcache.ReadReq.avgMshrMissLatency::cpu.data 29806.580491                       # average ReadReq mshr miss latency ((Tick/Count))
system.cpu.dcache.ReadReq.avgMshrMissLatency::total 29806.580491                       # average ReadReq mshr miss latency ((Tick/Count))
system.cpu.dcache.WriteReq.hits::cpu.data         1502                       # number of WriteReq hits (Count)
system.cpu.dcache.WriteReq.hits::total           1502                       # number of WriteReq hits (Count)
system.cpu.dcache.WriteReq.misses::cpu.data          145                       # number of WriteReq misses (Count)
system.cpu.dcache.WriteReq.misses::total          145                       # number of WriteReq misses (Count)
system.cpu.dcache.WriteReq.missLatency::cpu.data     14612000                       # number of WriteReq miss ticks (Tick)
system.cpu.dcache.WriteReq.missLatency::total     14612000                       # number of WriteReq miss ticks (Tick)
system.cpu.dcache.WriteReq.accesses::cpu.data         1647                       # number of WriteReq accesses(hits+misses) (Count)
system.cpu.dcache.WriteReq.accesses::total         1647                       # number of WriteReq accesses(hits+misses) (Count)
system.cpu.dcache.WriteReq.missRate::cpu.data     0.088039                       # miss rate for WriteReq accesses (Ratio)
system.cpu.dcache.WriteReq.missRate::total     0.088039                       # miss rate for WriteReq accesses (Ratio)
system.cpu.dcache.WriteReq.avgMissLatency::cpu.data 100772.413793                       # average WriteReq miss latency ((Tick/Count))
system.cpu.dcache.WriteReq.avgMissLatency::total 100772.413793                       # average WriteReq miss latency ((Tick/Count))
system.cpu.dcache.WriteReq.mshrMisses::cpu.data          145                       # number of WriteReq MSHR misses (Count)
system.cpu.dcache.WriteReq.mshrMisses::total          145                       # number of WriteReq MSHR misses (Count)
system.cpu.dcache.WriteReq.mshrMissLatency::cpu.data     14322000                       # number of WriteReq MSHR miss ticks (Tick)
system.cpu.dcache.WriteReq.mshrMissLatency::total     14322000                       # number of WriteReq MSHR miss ticks (Tick)
system.cpu.dcache.WriteReq.mshrMissRate::cpu.data     0.088039                       # mshr miss rate for WriteReq accesses (Ratio)
system.cpu.dcache.WriteReq.mshrMissRate::total     0.088039                       # mshr miss rate for WriteReq accesses (Ratio)
system.cpu.dcache.WriteReq.avgMshrMissLatency::cpu.data 98772.413793                       # average WriteReq mshr miss latency ((Tick/Count))
system.cpu.dcache.WriteReq.avgMshrMissLatency::total 98772.413793                       # average WriteReq mshr miss latency ((Tick/Count))
system.cpu.dcache.power_state.pwrStateResidencyTicks::UNDEFINED    423519000                       # Cumulative time (in ticks) in various power states (Tick)
system.cpu.dcache.tags.tagsInUse           223.823356                       # Average ticks per tags in use ((Tick/Count))
system.cpu.dcache.tags.totalRefs                63501                       # Total number of references to valid blocks. (Count)
system.cpu.dcache.tags.sampledRefs              47738                       # Sample count of references to valid blocks. (Count)
system.cpu.dcache.tags.avgRefs               1.330198                       # Average number of references to valid blocks. ((Count/Count))
system.cpu.dcache.tags.warmupTick              225000                       # The tick when the warmup percentage was hit. (Tick)
system.cpu.dcache.tags.occupancies::cpu.data   223.823356                       # Average occupied blocks per tick, per requestor ((Count/Tick))
system.cpu.dcache.tags.avgOccs::cpu.data     0.218577                       # Average percentage of cache occupancy ((Ratio/Tick))
system.cpu.dcache.tags.avgOccs::total        0.218577                       # Average percentage of cache occupancy ((Ratio/Tick))
system.cpu.dcache.tags.occupanciesTaskId::1024          254                       # Occupied blocks per task id (Count)
system.cpu.dcache.tags.ageTaskId_1024::0           36                       # Occupied blocks per task id, per block age (Count)
system.cpu.dcache.tags.ageTaskId_1024::2          218                       # Occupied blocks per task id, per block age (Count)
system.cpu.dcache.tags.ratioOccsTaskId::1024     0.248047                       # Ratio of occupied blocks and all blocks, per task id (Ratio)
system.cpu.dcache.tags.tagAccesses             212700                       # Number of tag accesses (Count)
system.cpu.dcache.tags.dataAccesses            212700                       # Number of data accesses (Count)
system.cpu.dcache.tags.power_state.pwrStateResidencyTicks::UNDEFINED    423519000                       # Cumulative time (in ticks) in various power states (Tick)
system.cpu.decode.idleCycles                    24689                       # Number of cycles decode is idle (Cycle)
system.cpu.decode.blockedCycles                343943                       # Number of cycles decode is blocked (Cycle)
system.cpu.decode.runCycles                     11152                       # Number of cycles decode is running (Cycle)
system.cpu.decode.unblockCycles                 22740                       # Number of cycles decode is unblocking (Cycle)
system.cpu.decode.squashCycles                    606                       # Number of cycles decode is squashing (Cycle)
system.cpu.decode.branchResolved                 9521                       # Number of times decode resolved a branch (Count)
system.cpu.decode.branchMispred                   222                       # Number of times decode detected a branch misprediction (Count)
system.cpu.decode.decodedInsts                 262981                       # Number of instructions handled by decode (Count)
system.cpu.decode.squashedInsts                  1024                       # Number of squashed instructions handled by decode (Count)
system.cpu.fetch.icacheStallCycles              32893                       # Number of cycles fetch is stalled on an Icache miss (Cycle)
system.cpu.fetch.insts                         134378                       # Number of instructions fetch has processed (Count)
system.cpu.fetch.branches                       12336                       # Number of branches that fetch encountered (Count)
system.cpu.fetch.predictedBranches               9692                       # Number of branches that fetch has predicted taken (Count)
system.cpu.fetch.cycles                        368549                       # Number of cycles fetch has run and was not squashing or blocked (Cycle)
system.cpu.fetch.squashCycles                    1654                       # Number of cycles fetch has spent squashing (Cycle)
system.cpu.fetch.miscStallCycles                  123                       # Number of cycles fetch has spent waiting on interrupts, or bad addresses, or out of MSHRs (Cycle)
system.cpu.fetch.pendingTrapStallCycles           721                       # Number of stall cycles due to pending traps (Cycle)
system.cpu.fetch.pendingQuiesceStallCycles            2                       # Number of stall cycles due to pending quiesce instructions (Cycle)
system.cpu.fetch.icacheWaitRetryStallCycles           15                       # Number of stall cycles due to full MSHR (Cycle)
system.cpu.fetch.cacheLines                     18796                       # Number of cache lines fetched (Count)
system.cpu.fetch.icacheSquashes                   360                       # Number of outstanding Icache misses that were squashed (Count)
system.cpu.fetch.nisnDist::samples             403130                       # Number of instructions fetched each cycle (Total) (Count)
system.cpu.fetch.nisnDist::mean              0.662181                       # Number of instructions fetched each cycle (Total) (Count)
system.cpu.fetch.nisnDist::stdev             2.041308                       # Number of instructions fetched each cycle (Total) (Count)
system.cpu.fetch.nisnDist::underflows               0      0.00%      0.00% # Number of instructions fetched each cycle (Total) (Count)
system.cpu.fetch.nisnDist::0                   358912     89.03%     89.03% # Number of instructions fetched each cycle (Total) (Count)
system.cpu.fetch.nisnDist::1                     4323      1.07%     90.10% # Number of instructions fetched each cycle (Total) (Count)
system.cpu.fetch.nisnDist::2                      285      0.07%     90.17% # Number of instructions fetched each cycle (Total) (Count)
system.cpu.fetch.nisnDist::3                     1880      0.47%     90.64% # Number of instructions fetched each cycle (Total) (Count)
system.cpu.fetch.nisnDist::4                     6133      1.52%     92.16% # Number of instructions fetched each cycle (Total) (Count)
system.cpu.fetch.nisnDist::5                     4443      1.10%     93.26% # Number of instructions fetched each cycle (Total) (Count)
system.cpu.fetch.nisnDist::6                      321      0.08%     93.34% # Number of instructions fetched each cycle (Total) (Count)
system.cpu.fetch.nisnDist::7                     6925      1.72%     95.06% # Number of instructions fetched each cycle (Total) (Count)
system.cpu.fetch.nisnDist::8                    19908      4.94%    100.00% # Number of instructions fetched each cycle (Total) (Count)
system.cpu.fetch.nisnDist::overflows                0      0.00%    100.00% # Number of instructions fetched each cycle (Total) (Count)
system.cpu.fetch.nisnDist::min_value                0                       # Number of instructions fetched each cycle (Total) (Count)
system.cpu.fetch.nisnDist::max_value                8                       # Number of instructions fetched each cycle (Total) (Count)
system.cpu.fetch.nisnDist::total               403130                       # Number of instructions fetched each cycle (Total) (Count)
system.cpu.fetch.branchRate                  0.029127                       # Number of branch fetches per cycle (Ratio)
system.cpu.fetch.rate                        0.317288                       # Number of inst fetches per cycle ((Count/Cycle))
system.cpu.icache.demandHits::cpu.inst          18182                       # number of demand (read+write) hits (Count)
system.cpu.icache.demandHits::total             18182                       # number of demand (read+write) hits (Count)
system.cpu.icache.overallHits::cpu.inst         18182                       # number of overall hits (Count)
system.cpu.icache.overallHits::total            18182                       # number of overall hits (Count)
system.cpu.icache.demandMisses::cpu.inst          614                       # number of demand (read+write) misses (Count)
system.cpu.icache.demandMisses::total             614                       # number of demand (read+write) misses (Count)
system.cpu.icache.overallMisses::cpu.inst          614                       # number of overall misses (Count)
system.cpu.icache.overallMisses::total            614                       # number of overall misses (Count)
system.cpu.icache.demandMissLatency::cpu.inst     60803999                       # number of demand (read+write) miss ticks (Tick)
system.cpu.icache.demandMissLatency::total     60803999                       # number of demand (read+write) miss ticks (Tick)
system.cpu.icache.overallMissLatency::cpu.inst     60803999                       # number of overall miss ticks (Tick)
system.cpu.icache.overallMissLatency::total     60803999                       # number of overall miss ticks (Tick)
system.cpu.icache.demandAccesses::cpu.inst        18796                       # number of demand (read+write) accesses (Count)
system.cpu.icache.demandAccesses::total         18796                       # number of demand (read+write) accesses (Count)
system.cpu.icache.overallAccesses::cpu.inst        18796                       # number of overall (read+write) accesses (Count)
system.cpu.icache.overallAccesses::total        18796                       # number of overall (read+write) accesses (Count)
system.cpu.icache.demandMissRate::cpu.inst     0.032667                       # miss rate for demand accesses (Ratio)
system.cpu.icache.demandMissRate::total      0.032667                       # miss rate for demand accesses (Ratio)
system.cpu.icache.overallMissRate::cpu.inst     0.032667                       # miss rate for overall accesses (Ratio)
system.cpu.icache.overallMissRate::total     0.032667                       # miss rate for overall accesses (Ratio)
system.cpu.icache.demandAvgMissLatency::cpu.inst 99029.314332                       # average overall miss latency ((Cycle/Count))
system.cpu.icache.demandAvgMissLatency::total 99029.314332                       # average overall miss latency ((Cycle/Count))
system.cpu.icache.overallAvgMissLatency::cpu.inst 99029.314332                       # average overall miss latency ((Cycle/Count))
system.cpu.icache.overallAvgMissLatency::total 99029.314332                       # average overall miss latency ((Cycle/Count))
system.cpu.icache.blockedCycles::no_mshrs          160                       # number of cycles access was blocked (Cycle)
system.cpu.icache.blockedCycles::no_targets            0                       # number of cycles access was blocked (Cycle)
system.cpu.icache.blockedCauses::no_mshrs            4                       # number of times access was blocked (Count)
system.cpu.icache.blockedCauses::no_targets            0                       # number of times access was blocked (Count)
system.cpu.icache.avgBlocked::no_mshrs             40                       # average number of cycles each access was blocked ((Cycle/Count))
system.cpu.icache.avgBlocked::no_targets          nan                       # average number of cycles each access was blocked ((Cycle/Count))
system.cpu.icache.demandMshrHits::cpu.inst          132                       # number of demand (read+write) MSHR hits (Count)
system.cpu.icache.demandMshrHits::total           132                       # number of demand (read+write) MSHR hits (Count)
system.cpu.icache.overallMshrHits::cpu.inst          132                       # number of overall MSHR hits (Count)
system.cpu.icache.overallMshrHits::total          132                       # number of overall MSHR hits (Count)
system.cpu.icache.demandMshrMisses::cpu.inst          482                       # number of demand (read+write) MSHR misses (Count)
system.cpu.icache.demandMshrMisses::total          482                       # number of demand (read+write) MSHR misses (Count)
system.cpu.icache.overallMshrMisses::cpu.inst          482                       # number of overall MSHR misses (Count)
system.cpu.icache.overallMshrMisses::total          482                       # number of overall MSHR misses (Count)
system.cpu.icache.demandMshrMissLatency::cpu.inst     49692999                       # number of demand (read+write) MSHR miss ticks (Tick)
system.cpu.icache.demandMshrMissLatency::total     49692999                       # number of demand (read+write) MSHR miss ticks (Tick)
system.cpu.icache.overallMshrMissLatency::cpu.inst     49692999                       # number of overall MSHR miss ticks (Tick)
system.cpu.icache.overallMshrMissLatency::total     49692999                       # number of overall MSHR miss ticks (Tick)
system.cpu.icache.demandMshrMissRate::cpu.inst     0.025644                       # mshr miss ratio for demand accesses (Ratio)
system.cpu.icache.demandMshrMissRate::total     0.025644                       # mshr miss ratio for demand accesses (Ratio)
system.cpu.icache.overallMshrMissRate::cpu.inst     0.025644                       # mshr miss ratio for overall accesses (Ratio)
system.cpu.icache.overallMshrMissRate::total     0.025644                       # mshr miss ratio for overall accesses (Ratio)
system.cpu.icache.demandAvgMshrMissLatency::cpu.inst 103097.508299                       # average overall mshr miss latency ((Cycle/Count))
system.cpu.icache.demandAvgMshrMissLatency::total 103097.508299                       # average overall mshr miss latency ((Cycle/Count))
system.cpu.icache.overallAvgMshrMissLatency::cpu.inst 103097.508299                       # average overall mshr miss latency ((Cycle/Count))
system.cpu.icache.overallAvgMshrMissLatency::total 103097.508299                       # average overall mshr miss latency ((Cycle/Count))
system.cpu.icache.replacements                    236                       # number of replacements (Count)
system.cpu.icache.ReadReq.hits::cpu.inst        18182                       # number of ReadReq hits (Count)
system.cpu.icache.ReadReq.hits::total           18182                       # number of ReadReq hits (Count)
system.cpu.icache.ReadReq.misses::cpu.inst          614                       # number of ReadReq misses (Count)
system.cpu.icache.ReadReq.misses::total           614                       # number of ReadReq misses (Count)
system.cpu.icache.ReadReq.missLatency::cpu.inst     60803999                       # number of ReadReq miss ticks (Tick)
system.cpu.icache.ReadReq.missLatency::total     60803999                       # number of ReadReq miss ticks (Tick)
system.cpu.icache.ReadReq.accesses::cpu.inst        18796                       # number of ReadReq accesses(hits+misses) (Count)
system.cpu.icache.ReadReq.accesses::total        18796                       # number of ReadReq accesses(hits+misses) (Count)
system.cpu.icache.ReadReq.missRate::cpu.inst     0.032667                       # miss rate for ReadReq accesses (Ratio)
system.cpu.icache.ReadReq.missRate::total     0.032667                       # miss rate for ReadReq accesses (Ratio)
system.cpu.icache.ReadReq.avgMissLatency::cpu.inst 99029.314332                       # average ReadReq miss latency ((Tick/Count))
system.cpu.icache.ReadReq.avgMissLatency::total 99029.314332                       # average ReadReq miss latency ((Tick/Count))
system.cpu.icache.ReadReq.mshrHits::cpu.inst          132                       # number of ReadReq MSHR hits (Count)
system.cpu.icache.ReadReq.mshrHits::total          132                       # number of ReadReq MSHR hits (Count)
system.cpu.icache.ReadReq.mshrMisses::cpu.inst          482                       # number of ReadReq MSHR misses (Count)
system.cpu.icache.ReadReq.mshrMisses::total          482                       # number of ReadReq MSHR misses (Count)
system.cpu.icache.ReadReq.mshrMissLatency::cpu.inst     49692999                       # number of ReadReq MSHR miss ticks (Tick)
system.cpu.icache.ReadReq.mshrMissLatency::total     49692999                       # number of ReadReq MSHR miss ticks (Tick)
system.cpu.icache.ReadReq.mshrMissRate::cpu.inst     0.025644                       # mshr miss rate for ReadReq accesses (Ratio)
system.cpu.icache.ReadReq.mshrMissRate::total     0.025644                       # mshr miss rate for ReadReq accesses (Ratio)
system.cpu.icache.ReadReq.avgMshrMissLatency::cpu.inst 103097.508299                       # average ReadReq mshr miss latency ((Tick/Count))
system.cpu.icache.ReadReq.avgMshrMissLatency::total 103097.508299                       # average ReadReq mshr miss latency ((Tick/Count))
system.cpu.icache.power_state.pwrStateResidencyTicks::UNDEFINED    423519000                       # Cumulative time (in ticks) in various power states (Tick)
system.cpu.icache.tags.tagsInUse           231.274732                       # Average ticks per tags in use ((Tick/Count))
system.cpu.icache.tags.totalRefs                18663                       # Total number of references to valid blocks. (Count)
system.cpu.icache.tags.sampledRefs                481                       # Sample count of references to valid blocks. (Count)
system.cpu.icache.tags.avgRefs              38.800416                       # Average number of references to valid blocks. ((Count/Count))
system.cpu.icache.tags.warmupTick              107000                       # The tick when the warmup percentage was hit. (Tick)
system.cpu.icache.tags.occupancies::cpu.inst   231.274732                       # Average occupied blocks per tick, per requestor ((Count/Tick))
system.cpu.icache.tags.avgOccs::cpu.inst     0.903417                       # Average percentage of cache occupancy ((Ratio/Tick))
system.cpu.icache.tags.avgOccs::total        0.903417                       # Average percentage of cache occupancy ((Ratio/Tick))
system.cpu.icache.tags.occupanciesTaskId::1024          245                       # Occupied blocks per task id (Count)
system.cpu.icache.tags.ageTaskId_1024::0           39                       # Occupied blocks per task id, per block age (Count)
system.cpu.icache.tags.ageTaskId_1024::2          206                       # Occupied blocks per task id, per block age (Count)
system.cpu.icache.tags.ratioOccsTaskId::1024     0.957031                       # Ratio of occupied blocks and all blocks, per task id (Ratio)
system.cpu.icache.tags.tagAccesses              38073                       # Number of tag accesses (Count)
system.cpu.icache.tags.dataAccesses             38073                       # Number of data accesses (Count)
system.cpu.icache.tags.power_state.pwrStateResidencyTicks::UNDEFINED    423519000                       # Cumulative time (in ticks) in various power states (Tick)
system.cpu.interrupts.clk_domain.clock          16000                       # Clock period in ticks (Tick)
system.cpu.lsq0.forwLoads                         202                       # Number of loads that had data forwarded from stores (Count)
system.cpu.lsq0.squashedLoads                    1629                       # Number of loads squashed (Count)
system.cpu.lsq0.ignoredResponses                    1                       # Number of memory responses ignored because the instruction is squashed (Count)
system.cpu.lsq0.memOrderViolation                  16                       # Number of memory ordering violations (Count)
system.cpu.lsq0.squashedStores                   1091                       # Number of stores squashed (Count)
system.cpu.lsq0.rescheduledLoads                    1                       # Number of loads that were rescheduled (Count)
system.cpu.lsq0.blockedByCache                  46179                       # Number of times an access to memory failed due to the cache being blocked (Count)
system.cpu.lsq0.loadToUse::samples              75288                       # Distribution of cycle latency between the first time a load is issued and its completion (Unspecified)
system.cpu.lsq0.loadToUse::mean            101.263322                       # Distribution of cycle latency between the first time a load is issued and its completion (Unspecified)
system.cpu.lsq0.loadToUse::stdev            69.013397                       # Distribution of cycle latency between the first time a load is issued and its completion (Unspecified)
system.cpu.lsq0.loadToUse::0-9                   4739      6.29%      6.29% # Distribution of cycle latency between the first time a load is issued and its completion (Unspecified)
system.cpu.lsq0.loadToUse::10-19                 2310      3.07%      9.36% # Distribution of cycle latency between the first time a load is issued and its completion (Unspecified)
system.cpu.lsq0.loadToUse::20-29                 2925      3.89%     13.25% # Distribution of cycle latency between the first time a load is issued and its completion (Unspecified)
system.cpu.lsq0.loadToUse::30-39                 4173      5.54%     18.79% # Distribution of cycle latency between the first time a load is issued and its completion (Unspecified)
system.cpu.lsq0.loadToUse::40-49                 3883      5.16%     23.95% # Distribution of cycle latency between the first time a load is issued and its completion (Unspecified)
system.cpu.lsq0.loadToUse::50-59                 5254      6.98%     30.93% # Distribution of cycle latency between the first time a load is issued and its completion (Unspecified)
system.cpu.lsq0.loadToUse::60-69                 5613      7.46%     38.38% # Distribution of cycle latency between the first time a load is issued and its completion (Unspecified)
system.cpu.lsq0.loadToUse::70-79                 4294      5.70%     44.09% # Distribution of cycle latency between the first time a load is issued and its completion (Unspecified)
system.cpu.lsq0.loadToUse::80-89                 4526      6.01%     50.10% # Distribution of cycle latency between the first time a load is issued and its completion (Unspecified)
system.cpu.lsq0.loadToUse::90-99                 4059      5.39%     55.49% # Distribution of cycle latency between the first time a load is issued and its completion (Unspecified)
system.cpu.lsq0.loadToUse::100-109               3614      4.80%     60.29% # Distribution of cycle latency between the first time a load is issued and its completion (Unspecified)
system.cpu.lsq0.loadToUse::110-119               4159      5.52%     65.81% # Distribution of cycle latency between the first time a load is issued and its completion (Unspecified)
system.cpu.lsq0.loadToUse::120-129               3703      4.92%     70.73% # Distribution of cycle latency between the first time a load is issued and its completion (Unspecified)
system.cpu.lsq0.loadToUse::130-139               2758      3.66%     74.39% # Distribution of cycle latency between the first time a load is issued and its completion (Unspecified)
system.cpu.lsq0.loadToUse::140-149               2851      3.79%     78.18% # Distribution of cycle latency between the first time a load is issued and its completion (Unspecified)
system.cpu.lsq0.loadToUse::150-159               2460      3.27%     81.45% # Distribution of cycle latency between the first time a load is issued and its completion (Unspecified)
system.cpu.lsq0.loadToUse::160-169               1995      2.65%     84.10% # Distribution of cycle latency between the first time a load is issued and its completion (Unspecified)
system.cpu.lsq0.loadToUse::170-179               1990      2.64%     86.74% # Distribution of cycle latency between the first time a load is issued and its completion (Unspecified)
system.cpu.lsq0.loadToUse::180-189               1765      2.34%     89.09% # Distribution of cycle latency between the first time a load is issued and its completion (Unspecified)
system.cpu.lsq0.loadToUse::190-199               1353      1.80%     90.88% # Distribution of cycle latency between the first time a load is issued and its completion (Unspecified)
system.cpu.lsq0.loadToUse::200-209               1126      1.50%     92.38% # Distribution of cycle latency between the first time a load is issued and its completion (Unspecified)
system.cpu.lsq0.loadToUse::210-219               1050      1.39%     93.77% # Distribution of cycle latency between the first time a load is issued and its completion (Unspecified)
system.cpu.lsq0.loadToUse::220-229                767      1.02%     94.79% # Distribution of cycle latency between the first time a load is issued and its completion (Unspecified)
system.cpu.lsq0.loadToUse::230-239                705      0.94%     95.73% # Distribution of cycle latency between the first time a load is issued and its completion (Unspecified)
system.cpu.lsq0.loadToUse::240-249                610      0.81%     96.54% # Distribution of cycle latency between the first time a load is issued and its completion (Unspecified)
system.cpu.lsq0.loadToUse::250-259                503      0.67%     97.21% # Distribution of cycle latency between the first time a load is issued and its completion (Unspecified)
system.cpu.lsq0.loadToUse::260-269                426      0.57%     97.77% # Distribution of cycle latency between the first time a load is issued and its completion (Unspecified)
system.cpu.lsq0.loadToUse::270-279                325      0.43%     98.20% # Distribution of cycle latency between the first time a load is issued and its completion (Unspecified)
system.cpu.lsq0.loadToUse::280-289                281      0.37%     98.58% # Distribution of cycle latency between the first time a load is issued and its completion (Unspecified)
system.cpu.lsq0.loadToUse::290-299                221      0.29%     98.87% # Distribution of cycle latency between the first time a load is issued and its completion (Unspecified)
system.cpu.lsq0.loadToUse::overflows              850      1.13%    100.00% # Distribution of cycle latency between the first time a load is issued and its completion (Unspecified)
system.cpu.lsq0.loadToUse::min_value                2                       # Distribution of cycle latency between the first time a load is issued and its completion (Unspecified)
system.cpu.lsq0.loadToUse::max_value              542                       # Distribution of cycle latency between the first time a load is issued and its completion (Unspecified)
system.cpu.lsq0.loadToUse::total                75288                       # Distribution of cycle latency between the first time a load is issued and its completion (Unspecified)
system.cpu.mmu.dtb.rdAccesses                   81106                       # TLB accesses on read requests (Count)
system.cpu.mmu.dtb.wrAccesses                    2242                       # TLB accesses on write requests (Count)
system.cpu.mmu.dtb.rdMisses                        84                       # TLB misses on read requests (Count)
system.cpu.mmu.dtb.wrMisses                        22                       # TLB misses on write requests (Count)
[...]
system.victimbus.transDist::ReadExResp            118                       # Transaction distribution (Count)
system.victimbus.transDist::ReadSharedReq        47620                       # Transaction distribution (Count)
system.victimbus.pktCount_system.cpu.dcache.mem_side_port::system.victimcache.cpu_side_port       143014                       # Packet count per connected requestor and responder (Count)
system.victimbus.pktSize_system.cpu.dcache.mem_side_port::system.victimcache.cpu_side_port      6094208                       # Cumulative packet size per connected requestor and responder (Byte)
system.victimbus.snoops                         64022                       # Total snoops (Count)
system.victimbus.snoopTraffic                 4097408                       # Total snoop traffic (Byte)
system.victimbus.snoopFanout::samples          111787                       # Request fanout histogram (Count)
system.victimbus.snoopFanout::mean           0.287502                       # Request fanout histogram (Count)
system.victimbus.snoopFanout::stdev          0.452600                       # Request fanout histogram (Count)
system.victimbus.snoopFanout::underflows            0      0.00%      0.00% # Request fanout histogram (Count)
system.victimbus.snoopFanout::0                 79648     71.25%     71.25% # Request fanout histogram (Count)
system.victimbus.snoopFanout::1                 32139     28.75%    100.00% # Request fanout histogram (Count)
system.victimbus.snoopFanout::overflows             0      0.00%    100.00% # Request fanout histogram (Count)
system.victimbus.snoopFanout::min_value             0                       # Request fanout histogram (Count)
system.victimbus.snoopFanout::max_value             1                       # Request fanout histogram (Count)
system.victimbus.snoopFanout::total            111787                       # Request fanout histogram (Count)
system.victimbus.power_state.pwrStateResidencyTicks::UNDEFINED    423519000                       # Cumulative time (in ticks) in various power states (Tick)
system.victimbus.reqLayer0.occupancy        145321705                       # Layer occupancy (ticks) (Tick)
system.victimbus.reqLayer0.utilization            0.3                       # Layer utilization (Ratio)
system.victimbus.respLayer0.occupancy       136863598                       # Layer occupancy (ticks) (Tick)
system.victimbus.respLayer0.utilization           0.3                       # Layer utilization (Ratio)
system.victimbus.snoop_filter.totRequests        96544                       # Total number of requests made to the snoop filter. (Count)
system.victimbus.snoop_filter.hitSingleRequests        48806                       # Number of requests hitting in the snoop filter with a single holder of the requested data. (Count)
system.victimbus.snoop_filter.hitMultiRequests            0                       # Number of requests hitting in the snoop filter with multiple (>1) holders of the requested data. (Count)
system.victimbus.snoop_filter.totSnoops         32139                       # Total number of snoops made to the snoop filter. (Count)
system.victimbus.snoop_filter.hitSingleSnoops        32139                       # Number of snoops hitting in the snoop filter with a single holder of the requested data. (Count)
system.victimbus.snoop_filter.hitMultiSnoops            0                       # Number of snoops hitting in the snoop filter with multiple (>1) holders of the requested data. (Count)
system.victimcache.demandHits::cpu.data         15599                       # number of demand (read+write) hits (Count)
system.victimcache.demandHits::total            15599                       # number of demand (read+write) hits (Count)
system.victimcache.overallHits::cpu.data        15599                       # number of overall hits (Count)
system.victimcache.overallHits::total           15599                       # number of overall hits (Count)
system.victimcache.demandMisses::cpu.data        32139                       # number of demand (read+write) misses (Count)
system.victimcache.demandMisses::total          32139                       # number of demand (read+write) misses (Count)
system.victimcache.overallMisses::cpu.data        32139                       # number of overall misses (Count)
system.victimcache.overallMisses::total         32139                       # number of overall misses (Count)
system.victimcache.demandMissLatency::cpu.data   1262470000                       # number of demand (read+write) miss ticks (Tick)
system.victimcache.demandMissLatency::total   1262470000                       # number of demand (read+write) miss ticks (Tick)
system.victimcache.overallMissLatency::cpu.data   1262470000                       # number of overall miss ticks (Tick)
system.victimcache.overallMissLatency::total   1262470000                       # number of overall miss ticks (Tick)
system.victimcache.demandAccesses::cpu.data        47738                       # number of demand (read+write) accesses (Count)
system.victimcache.demandAccesses::total        47738                       # number of demand (read+write) accesses (Count)
system.victimcache.overallAccesses::cpu.data        47738                       # number of overall (read+write) accesses (Count)
system.victimcache.overallAccesses::total        47738                       # number of overall (read+write) accesses (Count)
system.victimcache.demandMissRate::cpu.data     0.673237                       # miss rate for demand accesses (Ratio)
system.victimcache.demandMissRate::total     0.673237                       # miss rate for demand accesses (Ratio)
system.victimcache.overallMissRate::cpu.data     0.673237                       # miss rate for overall accesses (Ratio)
system.victimcache.overallMissRate::total     0.673237                       # miss rate for overall accesses (Ratio)
system.victimcache.demandAvgMissLatency::cpu.data 39281.558231                       # average overall miss latency ((Cycle/Count))
system.victimcache.demandAvgMissLatency::total 39281.558231                       # average overall miss latency ((Cycle/Count))
system.victimcache.overallAvgMissLatency::cpu.data 39281.558231                       # average overall miss latency ((Cycle/Count))
system.victimcache.overallAvgMissLatency::total 39281.558231                       # average overall miss latency ((Cycle/Count))
system.victimcache.blockedCycles::no_mshrs       170798                       # number of cycles access was blocked (Cycle)
system.victimcache.blockedCycles::no_targets            0                       # number of cycles access was blocked (Cycle)
system.victimcache.blockedCauses::no_mshrs        18141                       # number of times access was blocked (Count)
system.victimcache.blockedCauses::no_targets            0                       # number of times access was blocked (Count)
system.victimcache.avgBlocked::no_mshrs      9.415027                       # average number of cycles each access was blocked ((Cycle/Count))
system.victimcache.avgBlocked::no_targets          nan                       # average number of cycles each access was blocked ((Cycle/Count))
system.victimcache.writebacks::writebacks        64022                       # number of writebacks (Count)
system.victimcache.writebacks::total            64022                       # number of writebacks (Count)
system.victimcache.demandMshrMisses::cpu.data        32139                       # number of demand (read+write) MSHR misses (Count)
system.victimcache.demandMshrMisses::total        32139                       # number of demand (read+write) MSHR misses (Count)
system.victimcache.overallMshrMisses::cpu.data        32139                       # number of overall MSHR misses (Count)
system.victimcache.overallMshrMisses::total        32139                       # number of overall MSHR misses (Count)
system.victimcache.demandMshrMissLatency::cpu.data   1262470000                       # number of demand (read+write) MSHR miss ticks (Tick)
system.victimcache.demandMshrMissLatency::total   1262470000                       # number of demand (read+write) MSHR miss ticks (Tick)
system.victimcache.overallMshrMissLatency::cpu.data   1262470000                       # number of overall MSHR miss ticks (Tick)
system.victimcache.overallMshrMissLatency::total   1262470000                       # number of overall MSHR miss ticks (Tick)
system.victimcache.demandMshrMissRate::cpu.data     0.673237                       # mshr miss ratio for demand accesses (Ratio)
system.victimcache.demandMshrMissRate::total     0.673237                       # mshr miss ratio for demand accesses (Ratio)
system.victimcache.overallMshrMissRate::cpu.data     0.673237                       # mshr miss ratio for overall accesses (Ratio)
system.victimcache.overallMshrMissRate::total     0.673237                       # mshr miss ratio for overall accesses (Ratio)
system.victimcache.demandAvgMshrMissLatency::cpu.data 39281.558231                       # average overall mshr miss latency ((Cycle/Count))
system.victimcache.demandAvgMshrMissLatency::total 39281.558231                       # average overall mshr miss latency ((Cycle/Count))
system.victimcache.overallAvgMshrMissLatency::cpu.data 39281.558231                       # average overall mshr miss latency ((Cycle/Count))
system.victimcache.overallAvgMshrMissLatency::total 39281.558231                       # average overall mshr miss latency ((Cycle/Count))
system.victimcache.replacements                 31883                       # number of replacements (Count)
system.victimcache.ReadExReq.misses::cpu.data          118                       # number of ReadExReq misses (Count)
system.victimcache.ReadExReq.misses::total          118                       # number of ReadExReq misses (Count)
system.victimcache.ReadExReq.missLatency::cpu.data     12458000                       # number of ReadExReq miss ticks (Tick)
system.victimcache.ReadExReq.missLatency::total     12458000                       # number of ReadExReq miss ticks (Tick)
system.victimcache.ReadExReq.accesses::cpu.data          118                       # number of ReadExReq accesses(hits+misses) (Count)
system.victimcache.ReadExReq.accesses::total          118                       # number of ReadExReq accesses(hits+misses) (Count)
system.victimcache.ReadExReq.missRate::cpu.data            1                       # miss rate for ReadExReq accesses (Ratio)
system.victimcache.ReadExReq.missRate::total            1                       # miss rate for ReadExReq accesses (Ratio)
system.victimcache.ReadExReq.avgMissLatency::cpu.data 105576.271186                       # average ReadExReq miss latency ((Tick/Count))
system.victimcache.ReadExReq.avgMissLatency::total 105576.271186                       # average ReadExReq miss latency ((Tick/Count))
system.victimcache.ReadExReq.mshrMisses::cpu.data          118                       # number of ReadExReq MSHR misses (Count)
system.victimcache.ReadExReq.mshrMisses::total          118                       # number of ReadExReq MSHR misses (Count)
system.victimcache.ReadExReq.mshrMissLatency::cpu.data     12458000                       # number of ReadExReq MSHR miss ticks (Tick)
system.victimcache.ReadExReq.mshrMissLatency::total     12458000                       # number of ReadExReq MSHR miss ticks (Tick)
system.victimcache.ReadExReq.mshrMissRate::cpu.data            1                       # mshr miss rate for ReadExReq accesses (Ratio)
system.victimcache.ReadExReq.mshrMissRate::total            1                       # mshr miss rate for ReadExReq accesses (Ratio)
system.victimcache.ReadExReq.avgMshrMissLatency::cpu.data 105576.271186                       # average ReadExReq mshr miss latency ((Tick/Count))
system.victimcache.ReadExReq.avgMshrMissLatency::total 105576.271186                       # average ReadExReq mshr miss latency ((Tick/Count))
system.victimcache.ReadSharedReq.hits::cpu.data        15599                       # number of ReadSharedReq hits (Count)
system.victimcache.ReadSharedReq.hits::total        15599                       # number of ReadSharedReq hits (Count)
system.victimcache.ReadSharedReq.misses::cpu.data        32021                       # number of ReadSharedReq misses (Count)
system.victimcache.ReadSharedReq.misses::total        32021                       # number of ReadSharedReq misses (Count)
system.victimcache.ReadSharedReq.missLatency::cpu.data   1250012000                       # number of ReadSharedReq miss ticks (Tick)
system.victimcache.ReadSharedReq.missLatency::total   1250012000                       # number of ReadSharedReq miss ticks (Tick)
system.victimcache.ReadSharedReq.accesses::cpu.data        47620                       # number of ReadSharedReq accesses(hits+misses) (Count)
system.victimcache.ReadSharedReq.accesses::total        47620                       # number of ReadSharedReq accesses(hits+misses) (Count)
system.victimcache.ReadSharedReq.missRate::cpu.data     0.672428                       # miss rate for ReadSharedReq accesses (Ratio)
system.victimcache.ReadSharedReq.missRate::total     0.672428                       # miss rate for ReadSharedReq accesses (Ratio)
system.victimcache.ReadSharedReq.avgMissLatency::cpu.data 39037.256800                       # average ReadSharedReq miss latency ((Tick/Count))
system.victimcache.ReadSharedReq.avgMissLatency::total 39037.256800                       # average ReadSharedReq miss latency ((Tick/Count))
system.victimcache.ReadSharedReq.mshrMisses::cpu.data        32021                       # number of ReadSharedReq MSHR misses (Count)
system.victimcache.ReadSharedReq.mshrMisses::total        32021                       # number of ReadSharedReq MSHR misses (Count)
system.victimcache.ReadSharedReq.mshrMissLatency::cpu.data   1250012000                       # number of ReadSharedReq MSHR miss ticks (Tick)
system.victimcache.ReadSharedReq.mshrMissLatency::total   1250012000                       # number of ReadSharedReq MSHR miss ticks (Tick)
system.victimcache.ReadSharedReq.mshrMissRate::cpu.data     0.672428                       # mshr miss rate for ReadSharedReq accesses (Ratio)
system.victimcache.ReadSharedReq.mshrMissRate::total     0.672428                       # mshr miss rate for ReadSharedReq accesses (Ratio)
system.victimcache.ReadSharedReq.avgMshrMissLatency::cpu.data 39037.256800                       # average ReadSharedReq mshr miss latency ((Tick/Count))
system.victimcache.ReadSharedReq.avgMshrMissLatency::total 39037.256800                       # average ReadSharedReq mshr miss latency ((Tick/Count))
system.victimcache.UpgradeReq.misses::cpu.data           27                       # number of UpgradeReq misses (Count)
system.victimcache.UpgradeReq.misses::total           27                       # number of UpgradeReq misses (Count)
system.victimcache.UpgradeReq.accesses::cpu.data           27                       # number of UpgradeReq accesses(hits+misses) (Count)
system.victimcache.UpgradeReq.accesses::total           27                       # number of UpgradeReq accesses(hits+misses) (Count)
system.victimcache.UpgradeReq.missRate::cpu.data            1                       # miss rate for UpgradeReq accesses (Ratio)
system.victimcache.UpgradeReq.missRate::total            1                       # miss rate for UpgradeReq accesses (Ratio)
system.victimcache.UpgradeReq.mshrMisses::cpu.data           27                       # number of UpgradeReq MSHR misses (Count)
system.victimcache.UpgradeReq.mshrMisses::total           27                       # number of UpgradeReq MSHR misses (Count)
system.victimcache.UpgradeReq.mshrMissLatency::cpu.data      1429000                       # number of UpgradeReq MSHR miss ticks (Tick)
system.victimcache.UpgradeReq.mshrMissLatency::total      1429000                       # number of UpgradeReq MSHR miss ticks (Tick)
system.victimcache.UpgradeReq.mshrMissRate::cpu.data            1                       # mshr miss rate for UpgradeReq accesses (Ratio)
system.victimcache.UpgradeReq.mshrMissRate::total            1                       # mshr miss rate for UpgradeReq accesses (Ratio)
system.victimcache.UpgradeReq.avgMshrMissLatency::cpu.data 52925.925926                       # average UpgradeReq mshr miss latency ((Tick/Count))
system.victimcache.UpgradeReq.avgMshrMissLatency::total 52925.925926                       # average UpgradeReq mshr miss latency ((Tick/Count))
system.victimcache.WritebackClean.hits::writebacks        47482                       # number of WritebackClean hits (Count)
system.victimcache.WritebackClean.hits::total        47482                       # number of WritebackClean hits (Count)
system.victimcache.WritebackClean.accesses::writebacks        47482                       # number of WritebackClean accesses(hits+misses) (Count)
system.victimcache.WritebackClean.accesses::total        47482                       # number of WritebackClean accesses(hits+misses) (Count)
system.victimcache.WritebackDirty.hits::writebacks            2                       # number of WritebackDirty hits (Count)
system.victimcache.WritebackDirty.hits::total            2                       # number of WritebackDirty hits (Count)
system.victimcache.WritebackDirty.accesses::writebacks            2                       # number of WritebackDirty accesses(hits+misses) (Count)
system.victimcache.WritebackDirty.accesses::total            2                       # number of WritebackDirty accesses(hits+misses) (Count)
system.victimcache.power_state.pwrStateResidencyTicks::UNDEFINED    423519000                       # Cumulative time (in ticks) in various power states (Tick)
system.victimcache.tags.tagsInUse            1.688630                       # Average ticks per tags in use ((Tick/Count))
system.victimcache.tags.totalRefs               63083                       # Total number of references to valid blocks. (Count)
system.victimcache.tags.sampledRefs             47484                       # Sample count of references to valid blocks. (Count)
system.victimcache.tags.avgRefs              1.328511                       # Average number of references to valid blocks. ((Count/Count))
system.victimcache.tags.warmupTick           47291000                       # The tick when the warmup percentage was hit. (Tick)
system.victimcache.tags.occupancies::writebacks     1.688630                       # Average occupied blocks per tick, per requestor ((Count/Tick))
system.victimcache.tags.avgOccs::writebacks     0.844315                       # Average percentage of cache occupancy ((Ratio/Tick))
system.victimcache.tags.avgOccs::total       0.844315                       # Average percentage of cache occupancy ((Ratio/Tick))
system.victimcache.tags.occupanciesTaskId::1024            2                       # Occupied blocks per task id (Count)
system.victimcache.tags.ageTaskId_1024::0            2                       # Occupied blocks per task id, per block age (Count)
system.victimcache.tags.ratioOccsTaskId::1024            1                       # Ratio of occupied blocks and all blocks, per task id (Ratio)
system.victimcache.tags.tagAccesses            237982                       # Number of tag accesses (Count)
system.victimcache.tags.dataAccesses           237982                       # Number of data accesses (Count)
system.victimcache.tags.power_state.pwrStateResidencyTicks::UNDEFINED    423519000                       # Cumulative time (in ticks) in various power states (Tick)
system.workload.inst.arm                            0                       # number of arm instructions executed (Count)
system.workload.inst.quiesce                        0                       # number of quiesce instructions executed (Count)

---------- End Simulation Statistics   ----------
