
---------- Begin Simulation Statistics ----------
simSeconds                                   0.000513                       # Number of seconds simulated (Second)
simTicks                                    513449000                       # Number of ticks simulated (Tick)
finalTick                                   513449000                       # Number of ticks from beginning of simulation (restored from checkpoints and never reset) (Tick)
simFreq                                  1000000000000                       # The number of ticks per simulated second ((Tick/Second))
hostSeconds                                      1.49                       # Real time elapsed on the host (Second)
hostTickRate                                343810658                       # The number of ticks simulated per host second (ticks/s) ((Tick/Second))
hostMemory                                     645992                       # Number of bytes of host memory used (Byte)
simInsts                                       139475                       # Number of instructions simulated (Count)
simOps                                         204726                       # Number of ops (including micro ops) simulated (Count)
hostInstRate                                    93386                       # Simulator instruction rate (inst/s) ((Count/Second))
hostOpRate                                     137074                       # Simulator op (including micro ops) rate (op/s) ((Count/Second))
system.clk_domain.clock                          1000                       # Clock period in ticks (Tick)
system.clk_domain.voltage_domain.voltage            1                       # Voltage in Volts (Volt)
system.cpu.numCycles                           513450                       # Number of cpu cycles simulated (Cycle)
system.cpu.numWorkItemsStarted                      0                       # Number of work items this cpu started (Count)
system.cpu.numWorkItemsCompleted                    0                       # Number of work items this cpu completed (Count)
system.cpu.instsAdded                          217237                       # Number of instructions added to the IQ (excludes non-spec) (Count)
system.cpu.nonSpecInstsAdded                        1                       # Number of non-speculative instructions added to the IQ (Count)
system.cpu.instsIssued                         214333                       # Number of instructions issued (Count)
system.cpu.squashedInstsIssued                     44                       # Number of squashed instructions issued (Count)
system.cpu.squashedInstsExamined                12498                       # Number of squashed instructions iterated over during squash; mainly for profiling (Count)
system.cpu.squashedOperandsExamined             14312                       # Number of squashed operands that are examined and possibly removed from graph (Count)
system.cpu.squashedNonSpecRemoved                   1                       # Number of squashed non-spec instructions that were removed (Count)
system.cpu.numIssuedDist::samples              492388                       # Number of insts issued each cycle (Count)
system.cpu.numIssuedDist::mean               0.435293                       # Number of insts issued each cycle (Count)
system.cpu.numIssuedDist::stdev              1.139680                       # Number of insts issued each cycle (Count)
system.cpu.numIssuedDist::underflows                0      0.00%      0.00% # Number of insts issued each cycle (Count)
system.cpu.numIssuedDist::0                    384260     78.04%     78.04% # Number of insts issued each cycle (Count)
system.cpu.numIssuedDist::1                     73698     14.97%     93.01% # Number of insts issued each cycle (Count)
system.cpu.numIssuedDist::2                      7461      1.52%     94.52% # Number of insts issued each cycle (Count)
system.cpu.numIssuedDist::3                      6581      1.34%     95.86% # Number of insts issued each cycle (Count)
system.cpu.numIssuedDist::4                      6706      1.36%     97.22% # Number of insts issued each cycle (Count)
system.cpu.numIssuedDist::5                      3992      0.81%     98.03% # Number of insts issued each cycle (Count)
system.cpu.numIssuedDist::6                      8914      1.81%     99.84% # Number of insts issued each cycle (Count)
system.cpu.numIssuedDist::7                       506      0.10%     99.95% # Number of insts issued each cycle (Count)
system.cpu.numIssuedDist::8                       270      0.05%    100.00% # Number of insts issued each cycle (Count)
system.cpu.numIssuedDist::overflows                 0      0.00%    100.00% # Number of insts issued each cycle (Count)
system.cpu.numIssuedDist::min_value                 0                       # Number of insts issued each cycle (Count)
system.cpu.numIssuedDist::max_value                 8                       # Number of insts issued each cycle (Count)
system.cpu.numIssuedDist::total                492388                       # Number of insts issued each cycle (Count)
system.cpu.statFuBusy::No_OpClass                   0      0.00%      0.00% # attempts to use FU when none available (Count)
system.cpu.statFuBusy::IntAlu                     249     76.15%     76.15% # attempts to use FU when none available (Count)
system.cpu.statFuBusy::IntMult                      0      0.00%     76.15% # attempts to use FU when none available (Count)
system.cpu.statFuBusy::IntDiv                       0      0.00%     76.15% # attempts to use FU when none available (Count)
system.cpu.statFuBusy::FloatAdd                     0      0.00%     76.15% # attempts to use FU when none available (Count)
system.cpu.statFuBusy::FloatCmp                     0      0.00%     76.15% # attempts to use FU when none available (Count)
system.cpu.statFuBusy::FloatCvt                     0      0.00%     76.15% # attempts to use FU when none available (Count)
system.cpu.statFuBusy::FloatMult                    0      0.00%     76.15% # attempts to use FU when none available (Count)
system.cpu.statFuBusy::FloatMultAcc                 0      0.00%     76.15% # attempts to use FU when none available (Count)
system.cpu.statFuBusy::FloatDiv                     0      0.00%     76.15% # attempts to use FU when none available (Count)
system.cpu.statFuBusy::FloatMisc                    0      0.00%     76.15% # attempts to use FU when none available (Count)
system.cpu.statFuBusy::FloatSqrt                    0      0.00%     76.15% # attempts to use FU when none available (Count)
system.cpu.statFuBusy::SimdAdd                      0      0.00%     76.15% # attempts to use FU when none available (Count)
system.cpu.statFuBusy::SimdAddAcc                   0      0.00%     76.15% # attempts to use FU when none available (Count)
system.cpu.statFuBusy::SimdAlu                     11      3.36%     79.51% # attempts to use FU when none available (Count)
system.cpu.statFuBusy::SimdCmp                      0      0.00%     79.51% # attempts to use FU when none available (Count)
system.cpu.statFuBusy::SimdCvt                      0      0.00%     79.51% # attempts to use FU when none available (Count)
system.cpu.statFuBusy::SimdMisc                     2      0.61%     80.12% # attempts to use FU when none available (Count)
system.cpu.statFuBusy::SimdMult                     0      0.00%     80.12% # attempts to use FU when none available (Count)
system.cpu.statFuBusy::SimdMultAcc                  0      0.00%     80.12% # attempts to use FU when none available (Count)
system.cpu.statFuBusy::SimdShift                    0      0.00%     80.12% # attempts to use FU when none available (Count)
system.cpu.statFuBusy::SimdShiftAcc                 0      0.00%     80.12% # attempts to use FU when none available (Count)
system.cpu.statFuBusy::SimdDiv                      0      0.00%     80.12% # attempts to use FU when none available (Count)
system.cpu.statFuBusy::SimdSqrt                     0      0.00%     80.12% # attempts to use FU when none available (Count)
system.cpu.statFuBusy::SimdFloatAdd                 0      0.00%     80.12% # attempts to use FU when none available (Count)
system.cpu.statFuBusy::SimdFloatAlu                 0      0.00%     80.12% # attempts to use FU when none available (Count)
system.cpu.statFuBusy::SimdFloatCmp                 0      0.00%     80.12% # attempts to use FU when none available (Count)
system.cpu.statFuBusy::SimdFloatCvt                 0      0.00%     80.12% # attempts to use FU when none available (Count)
system.cpu.statFuBusy::SimdFloatDiv                 0      0.00%     80.12% # attempts to use FU when none available (Count)
system.cpu.statFuBusy::SimdFloatMisc                0      0.00%     80.12% # attempts to use FU when none available (Count)
system.cpu.statFuBusy::SimdFloatMult                0      0.00%     80.12% # attempts to use FU when none available (Count)
system.cpu.statFuBusy::SimdFloatMultAcc             0      0.00%     80.12% # attempts to use FU when none available (Count)
system.cpu.statFuBusy::SimdFloatSqrt                0      0.00%     80.12% # attempts to use FU when none available (Count)
system.cpu.statFuBusy::SimdReduceAdd                0      0.00%     80.12% # attempts to use FU when none available (Count)
system.cpu.statFuBusy::SimdReduceAlu                0      0.00%     80.12% # attempts to use FU when none available (Count)
system.cpu.statFuBusy::SimdReduceCmp                0      0.00%     80.12% # attempts to use FU when none available (Count)
system.cpu.statFuBusy::SimdFloatReduceAdd            0      0.00%     80.12% # attempts to use FU when none available (Count)
system.cpu.statFuBusy::SimdFloatReduceCmp            0      0.00%     80.12% # attempts to use FU when none available (Count)
system.cpu.statFuBusy::SimdAes                      0      0.00%     80.12% # attempts to use FU when none available (Count)
system.cpu.statFuBusy::SimdAesMix                   0      0.00%     80.12% # attempts to use FU when none available (Count)
system.cpu.statFuBusy::SimdSha1Hash                 0      0.00%     80.12% # attempts to use FU when none available (Count)
system.cpu.statFuBusy::SimdSha1Hash2                0      0.00%     80.12% # attempts to use FU when none available (Count)
system.cpu.statFuBusy::SimdSha256Hash               0      0.00%     80.12% # attempts to use FU when none available (Count)
system.cpu.statFuBusy::SimdSha256Hash2              0      0.00%     80.12% # attempts to use FU when none available (Count)
system.cpu.statFuBusy::SimdShaSigma2                0      0.00%     80.12% # attempts to use FU when none available (Count)
system.cpu.statFuBusy::SimdShaSigma3                0      0.00%     80.12% # attempts to use FU when none available (Count)
system.cpu.statFuBusy::SimdPredAlu                  0      0.00%     80.12% # attempts to use FU when none available (Count)
system.cpu.statFuBusy::MemRead                     27      8.26%     88.38% # attempts to use FU when none available (Count)
system.cpu.statFuBusy::MemWrite                    18      5.50%     93.88% # attempts to use FU when none available (Count)
system.cpu.statFuBusy::FloatMemRead                 6      1.83%     95.72% # attempts to use FU when none available (Count)
system.cpu.statFuBusy::FloatMemWrite               14      4.28%    100.00% # attempts to use FU when none available (Count)
system.cpu.statFuBusy::IprAccess                    0      0.00%    100.00% # attempts to use FU when none available (Count)
system.cpu.statFuBusy::InstPrefetch                 0      0.00%    100.00% # attempts to use FU when none available (Count)
system.cpu.statIssuedInstType_0::No_OpClass          646      0.30%      0.30% # Number of instructions issued per FU type, per thread (Count)
system.cpu.statIssuedInstType_0::IntAlu        101454     47.33%     47.64% # Number of instructions issued per FU type, per thread (Count)
system.cpu.statIssuedInstType_0::IntMult            6      0.00%     47.64% # Number of instructions issued per FU type, per thread (Count)
system.cpu.statIssuedInstType_0::IntDiv            29      0.01%     47.65% # Number of instructions issued per FU type, per thread (Count)
system.cpu.statIssuedInstType_0::FloatAdd          136      0.06%     47.72% # Number of instructions issued per FU type, per thread (Count)
system.cpu.statIssuedInstType_0::FloatCmp            0      0.00%     47.72% # Number of instructions issued per FU type, per thread (Count)
system.cpu.statIssuedInstType_0::FloatCvt            0      0.00%     47.72% # Number of instructions issued per FU type, per thread (Count)
system.cpu.statIssuedInstType_0::FloatMult            0      0.00%     47.72% # Number of instructions issued per FU type, per thread (Count)
system.cpu.statIssuedInstType_0::FloatMultAcc            0      0.00%     47.72% # Number of instructions issued per FU type, per thread (Count)
system.cpu.statIssuedInstType_0::FloatDiv            0      0.00%     47.72% # Number of instructions issued per FU type, per thread (Count)
system.cpu.statIssuedInstType_0::FloatMisc            0      0.00%     47.72% # Number of instructions issued per FU type, per thread (Count)
system.cpu.statIssuedInstType_0::FloatSqrt            0      0.00%     47.72% # Number of instructions issued per FU type, per thread (Count)
system.cpu.statIssuedInstType_0::SimdAdd            0      0.00%     47.72% # Number of instructions issued per FU type, per thread (Count)
system.cpu.statIssuedInstType_0::SimdAddAcc            0      0.00%     47.72% # Number of instructions issued per FU type, per thread (Count)
system.cpu.statIssuedInstType_0::SimdAlu        16548      7.72%     55.44% # Number of instructions issued per FU type, per thread (Count)
system.cpu.statIssuedInstType_0::SimdCmp            0      0.00%     55.44% # Number of instructions issued per FU type, per thread (Count)
system.cpu.statIssuedInstType_0::SimdCvt           48      0.02%     55.46% # Number of instructions issued per FU type, per thread (Count)
system.cpu.statIssuedInstType_0::SimdMisc         8411      3.92%     59.38% # Number of instructions issued per FU type, per thread (Count)
system.cpu.statIssuedInstType_0::SimdMult            0      0.00%     59.38% # Number of instructions issued per FU type, per thread (Count)
system.cpu.statIssuedInstType_0::SimdMultAcc            0      0.00%     59.38% # Number of instructions issued per FU type, per thread (Count)
system.cpu.statIssuedInstType_0::SimdShift            0      0.00%     59.38% # Number of instructions issued per FU type, per thread (Count)
system.cpu.statIssuedInstType_0::SimdShiftAcc            0      0.00%     59.38% # Number of instructions issued per FU type, per thread (Count)
system.cpu.statIssuedInstType_0::SimdDiv            0      0.00%     59.38% # Number of instructions issued per FU type, per thread (Count)
system.cpu.statIssuedInstType_0::SimdSqrt            0      0.00%     59.38% # Number of instructions issued per FU type, per thread (Count)
system.cpu.statIssuedInstType_0::SimdFloatAdd            0      0.00%     59.38% # Number of instructions issued per FU type, per thread (Count)
system.cpu.statIssuedInstType_0::SimdFloatAlu            0      0.00%     59.38% # Number of instructions issued per FU type, per thread (Count)
system.cpu.statIssuedInstType_0::SimdFloatCmp            0      0.00%     59.38% # Number of instructions issued per FU type, per thread (Count)
system.cpu.statIssuedInstType_0::SimdFloatCvt         8193      3.82%     63.21% # Number of instructions issued per FU type, per thread (Count)
system.cpu.statIssuedInstType_0::SimdFloatDiv            0      0.00%     63.21% # Number of instructions issued per FU type, per thread (Count)
system.cpu.statIssuedInstType_0::SimdFloatMisc            0      0.00%     63.21% # Number of instructions issued per FU type, per thread (Count)
system.cpu.statIssuedInstType_0::SimdFloatMult            0      0.00%     63.21% # Number of instructions issued per FU type, per thread (Count)
system.cpu.statIssuedInstType_0::SimdFloatMultAcc            0      0.00%     63.21% # Number of instructions issued per FU type, per thread (Count)
system.cpu.statIssuedInstType_0::SimdFloatSqrt            0      0.00%     63.21% # Number of instructions issued per FU type, per thread (Count)
system.cpu.statIssuedInstType_0::SimdReduceAdd            0      0.00%     63.21% # Number of instructions issued per FU type, per thread (Count)
system.cpu.statIssuedInstType_0::SimdReduceAlu            0      0.00%     63.21% # Number of instructions issued per FU type, per thread (Count)
system.cpu.statIssuedInstType_0::SimdReduceCmp            0      0.00%     63.21% # Number of instructions issued per FU type, per thread (Count)
system.cpu.statIssuedInstType_0::SimdFloatReduceAdd            0      0.00%     63.21% # Number of instructions issued per FU type, per thread (Count)
system.cpu.statIssuedInstType_0::SimdFloatReduceCmp            0      0.00%     63.21% # Number of instructions issued per FU type, per thread (Count)
system.cpu.statIssuedInstType_0::SimdAes            0      0.00%     63.21% # Number of instructions issued per FU type, per thread (Count)
system.cpu.statIssuedInstType_0::SimdAesMix            0      0.00%     63.21% # Number of instructions issued per FU type, per thread (Count)
system.cpu.statIssuedInstType_0::SimdSha1Hash            0      0.00%     63.21% # Number of instructions issued per FU type, per thread (Count)
system.cpu.statIssuedInstType_0::SimdSha1Hash2            0      0.00%     63.21% # Number of instructions issued per FU type, per thread (Count)
system.cpu.statIssuedInstType_0::SimdSha256Hash            0      0.00%     63.21% # Number of instructions issued per FU type, per thread (Count)
system.cpu.statIssuedInstType_0::SimdSha256Hash2            0      0.00%     63.21% # Number of instructions issued per FU type, per thread (Count)
system.cpu.statIssuedInstType_0::SimdShaSigma2            0      0.00%     63.21% # Number of instructions issued per FU type, per thread (Count)
system.cpu.statIssuedInstType_0::SimdShaSigma3            0      0.00%     63.21% # Number of instructions issued per FU type, per thread (Count)
system.cpu.statIssuedInstType_0::SimdPredAlu            0      0.00%     63.21% # Number of instructions issued per FU type, per thread (Count)
system.cpu.statIssuedInstType_0::MemRead         2796      1.30%     64.51% # Number of instructions issued per FU type, per thread (Count)
system.cpu.statIssuedInstType_0::MemWrite         1722      0.80%     65.31% # Number of instructions issued per FU type, per thread (Count)
system.cpu.statIssuedInstType_0::FloatMemRead           86      0.04%     65.35% # Number of instructions issued per FU type, per thread (Count)
system.cpu.statIssuedInstType_0::FloatMemWrite        74258     34.65%    100.00% # Number of instructions issued per FU type, per thread (Count)
system.cpu.statIssuedInstType_0::IprAccess            0      0.00%    100.00% # Number of instructions issued per FU type, per thread (Count)
system.cpu.statIssuedInstType_0::InstPrefetch            0      0.00%    100.00% # Number of instructions issued per FU type, per thread (Count)
system.cpu.statIssuedInstType_0::total         214333                       # Number of instructions issued per FU type, per thread (Count)
system.cpu.issueRate                         0.417437                       # Inst issue rate ((Count/Cycle))
system.cpu.fuBusy                                 327                       # FU busy when requested (Count)
system.cpu.fuBusyRate                        0.001526                       # FU busy rate (busy events/executed inst) ((Count/Count))
system.cpu.intInstQueueReads                   705745                       # Number of integer instruction queue reads (Count)
system.cpu.intInstQueueWrites                  121709                       # Number of integer instruction queue writes (Count)
system.cpu.intInstQueueWakeupAccesses          104919                       # Number of integer instruction queue wakeup accesses (Count)
system.cpu.fpInstQueueReads                    215674                       # Number of floating instruction queue reads (Count)
system.cpu.fpInstQueueWrites                   108036                       # Number of floating instruction queue writes (Count)
system.cpu.fpInstQueueWakeupAccesses           107784                       # Number of floating instruction queue wakeup accesses (Count)
system.cpu.vecInstQueueReads                        0                       # Number of vector instruction queue reads (Count)
system.cpu.vecInstQueueWrites                       0                       # Number of vector instruction queue writes (Count)
system.cpu.vecInstQueueWakeupAccesses               0                       # Number of vector instruction queue wakeup accesses (Count)
system.cpu.intAluAccesses                      106161                       # Number of integer alu accesses (Count)
system.cpu.fpAluAccesses                       107853                       # Number of floating point alu accesses (Count)
system.cpu.vecAluAccesses                           0                       # Number of vector alu accesses (Count)
system.cpu.idleCycles                               0                       # Number of cycles IEW is idle (Cycle)
system.cpu.squashCycles                           602                       # Number of cycles IEW is squashing (Cycle)
system.cpu.blockCycles                           1822                       # Number of cycles IEW is blocking (Cycle)
system.cpu.unblockCycles                        40408                       # Number of cycles IEW is unblocking (Cycle)
system.cpu.dispatchedInsts                     217238                       # Number of instructions dispatched to IQ (Count)
system.cpu.dispSquashedInsts                      122                       # Number of squashed instructions skipped by dispatch (Count)
system.cpu.dispLoadInsts                         3117                       # Number of dispatched load instructions (Count)
system.cpu.dispStoreInsts                       76319                       # Number of dispatched store instructions (Count)
system.cpu.dispNonSpecInsts                         1                       # Number of dispatched non-speculative instructions (Count)
system.cpu.iqFullEvents                             8                       # Number of times the IQ has become full, causing a stall (Count)
system.cpu.lsqFullEvents                        40397                       # Number of times the LSQ has become full, causing a stall (Count)
system.cpu.memOrderViolationEvents                 10                       # Number of memory order violations (Count)
system.cpu.predictedTakenIncorrect                 55                       # Number of branches that were predicted taken incorrectly (Count)
system.cpu.predictedNotTakenIncorrect             643                       # Number of branches that were predicted not taken incorrectly (Count)
system.cpu.branchMispredicts                      698                       # Number of branch mispredicts detected at execute (Count)
system.cpu.numInsts                            213451                       # Number of executed instructions (Count)
system.cpu.numLoadInsts                          2722                       # Number of load instructions executed (Count)
system.cpu.numSquashedInsts                       876                       # Number of squashed instructions skipped in execute (Count)
system.cpu.numSwp                                   0                       # Number of swp insts executed (Count)
system.cpu.numNop                                   0                       # Number of nop insts executed (Count)
system.cpu.numRefs                              78620                       # Number of memory reference insts executed (Count)
system.cpu.numBranches                          10611                       # Number of branches executed (Count)
system.cpu.numStoreInsts                        75898                       # Number of stores executed (Count)
system.cpu.numRate                           0.415719                       # Inst execution rate ((Count/Cycle))
system.cpu.instsToCommit                       213104                       # Cumulative count of insts sent to commit (Count)
system.cpu.writebackCount                      212703                       # Cumulative count of insts written-back (Count)
system.cpu.producerInst                         85219                       # Number of instructions producing a value (Count)
system.cpu.consumerInst                        107855                       # Number of instructions consuming a value (Count)
system.cpu.wbRate                            0.414262                       # Insts written-back per cycle ((Count/Cycle))
system.cpu.wbFanout                          0.790126                       # Average fanout of values written-back ((Count/Count))
system.cpu.timesIdled                             306                       # Number of times that the entire CPU went into an idle state and unscheduled itself (Count)
system.cpu.idleCycles                           21062                       # Total number of cycles that the CPU has spent unscheduled due to idling (Cycle)
system.cpu.committedInsts                      139475                       # Number of Instructions Simulated (Count)
system.cpu.committedOps                        204726                       # Number of Ops (including micro ops) Simulated (Count)
system.cpu.cpi                               3.681305                       # CPI: Cycles Per Instruction ((Cycle/Count))
system.cpu.totalCpi                          3.681305                       # CPI: Total CPI of All Threads ((Cycle/Count))
system.cpu.ipc                               0.271643                       # IPC: Instructions Per Cycle ((Count/Cycle))
system.cpu.totalIpc                          0.271643                       # IPC: Total IPC of All Threads ((Count/Cycle))
system.cpu.intRegfileReads                     279406                       # Number of integer regfile reads (Count)
system.cpu.intRegfileWrites                     92432                       # Number of integer regfile writes (Count)
system.cpu.fpRegfileReads                      132619                       # Number of floating regfile reads (Count)
system.cpu.fpRegfileWrites                      33492                       # Number of floating regfile writes (Count)
system.cpu.ccRegfileReads                       60143                       # number of cc regfile reads (Count)
system.cpu.ccRegfileWrites                      56385                       # number of cc regfile writes (Count)
system.cpu.miscRegfileReads                    100852                       # number of misc regfile reads (Count)
system.cpu.MemDepUnit__0.insertedLoads           3117                       # Number of loads inserted to the mem dependence unit. (Count)
system.cpu.MemDepUnit__0.insertedStores         76319                       # Number of stores inserted to the mem dependence unit. (Count)
system.cpu.MemDepUnit__0.conflictingLoads           24                       # Number of conflicting loads. (Count)
system.cpu.MemDepUnit__0.conflictingStores            4                       # Number of conflicting stores. (Count)
system.cpu.MemDepUnit__1.insertedLoads              0                       # Number of loads inserted to the mem dependence unit. (Count)
system.cpu.MemDepUnit__1.insertedStores             0                       # Number of stores inserted to the mem dependence unit. (Count)
system.cpu.MemDepUnit__1.conflictingLoads            0                       # Number of conflicting loads. (Count)
system.cpu.MemDepUnit__1.conflictingStores            0                       # Number of conflicting stores. (Count)
system.cpu.MemDepUnit__2.insertedLoads              0                       # Number of loads inserted to the mem dependence unit. (Count)
system.cpu.MemDepUnit__2.insertedStores             0                       # Number of stores inserted to the mem dependence unit. (Count)
system.cpu.MemDepUnit__2.conflictingLoads            0                       # Number of conflicting loads. (Count)
system.cpu.MemDepUnit__2.conflictingStores            0                       # Number of conflicting stores. (Count)
system.cpu.MemDepUnit__3.insertedLoads              0                       # Number of loads inserted to the mem dependence unit. (Count)
system.cpu.MemDepUnit__3.insertedStores             0                       # Number of stores inserted to the mem dependence unit. (Count)
system.cpu.MemDepUnit__3.conflictingLoads            0                       # Number of conflicting loads. (Count)
system.cpu.MemDepUnit__3.conflictingStores            0                       # Number of conflicting stores. (Count)
system.cpu.branchPred.lookups                   12208                       # Number of BP lookups (Count)
system.cpu.branchPred.condPredicted             11022                       # Number of conditional branches predicted (Count)
system.cpu.branchPred.condIncorrect               683                       # Number of conditional branches incorrect (Count)
system.cpu.branchPred.BTBLookups                10051                       # Number of BTB lookups (Count)
system.cpu.branchPred.BTBHits                    9349                       # Number of BTB hits (Count)
system.cpu.branchPred.BTBHitRatio            0.930156                       # BTB Hit Ratio (Ratio)
system.cpu.branchPred.RASUsed                     266                       # Number of times the RAS was used to get a target. (Count)
system.cpu.branchPred.RASIncorrect                  0                       # Number of incorrect RAS predictions. (Count)
system.cpu.branchPred.indirectLookups             315                       # Number of indirect predictor lookups. (Count)
system.cpu.branchPred.indirectHits                 15                       # Number of indirect target hits. (Count)
system.cpu.branchPred.indirectMisses              300                       # Number of indirect misses. (Count)
system.cpu.branchPred.indirectMispredicted           92                       # Number of mispredicted indirect branches. (Count)
system.cpu.commit.commitSquashedInsts           12365                       # The number of squashed insts skipped by commit (Count)
system.cpu.commit.branchMispredicts               581                       # The number of times a branch was mispredicted (Count)
system.cpu.commit.numCommittedDist::samples       490394                       # Number of insts commited each cycle (Count)
system.cpu.commit.numCommittedDist::mean     0.417472                       # Number of insts commited each cycle (Count)
system.cpu.commit.numCommittedDist::stdev     1.144985                       # Number of insts commited each cycle (Count)
system.cpu.commit.numCommittedDist::underflows            0      0.00%      0.00% # Number of insts commited each cycle (Count)
system.cpu.commit.numCommittedDist::0          382430     77.98%     77.98% # Number of insts commited each cycle (Count)
system.cpu.commit.numCommittedDist::1           72592     14.80%     92.79% # Number of insts commited each cycle (Count)
system.cpu.commit.numCommittedDist::2           13195      2.69%     95.48% # Number of insts commited each cycle (Count)
system.cpu.commit.numCommittedDist::3           11797      2.41%     97.88% # Number of insts commited each cycle (Count)
system.cpu.commit.numCommittedDist::4             512      0.10%     97.99% # Number of insts commited each cycle (Count)
system.cpu.commit.numCommittedDist::5            2381      0.49%     98.47% # Number of insts commited each cycle (Count)
system.cpu.commit.numCommittedDist::6            1189      0.24%     98.72% # Number of insts commited each cycle (Count)
system.cpu.commit.numCommittedDist::7            1118      0.23%     98.94% # Number of insts commited each cycle (Count)
system.cpu.commit.numCommittedDist::8            5180      1.06%    100.00% # Number of insts commited each cycle (Count)
system.cpu.commit.numCommittedDist::overflows            0      0.00%    100.00% # Number of insts commited each cycle (Count)
system.cpu.commit.numCommittedDist::min_value            0                       # Number of insts commited each cycle (Count)
system.cpu.commit.numCommittedDist::max_value            8                       # Number of insts commited each cycle (Count)
system.cpu.commit.numCommittedDist::total       490394                       # Number of insts commited each cycle (Count)
system.cpu.commit.instsCommitted               139475                       # Number of instructions committed (Count)
system.cpu.commit.opsCommitted                 204726                       # Number of ops (including micro ops) committed (Count)
system.cpu.commit.memRefs                       76918                       # Number of memory references committed (Count)
system.cpu.commit.loads                          1552                       # Number of loads committed (Count)
system.cpu.commit.amos                              0                       # Number of atomic instructions committed (Count)
system.cpu.commit.membars                           0                       # Number of memory barriers committed (Count)
system.cpu.commit.branches                       9936                       # Number of branches committed (Count)
system.cpu.commit.vectorInstructions                0                       # Number of committed Vector instructions. (Count)
system.cpu.commit.floating                     107648                       # Number of committed floating point instructions. (Count)
system.cpu.commit.integer                      179398                       # Number of committed integer instructions. (Count)
system.cpu.commit.functionCalls                   150                       # Number of function calls committed. (Count)
system.cpu.commit.committedInstType_0::No_OpClass          195      0.10%      0.10% # Class of committed instruction (Count)
system.cpu.commit.committedInstType_0::IntAlu        94327     46.07%     46.17% # Class of committed instruction (Count)
system.cpu.commit.committedInstType_0::IntMult            5      0.00%     46.17% # Class of committed instruction (Count)
system.cpu.commit.committedInstType_0::IntDiv           21      0.01%     46.18% # Class of committed instruction (Count)
system.cpu.commit.committedInstType_0::FloatAdd          135      0.07%     46.25% # Class of committed instruction (Count)
system.cpu.commit.committedInstType_0::FloatCmp            0      0.00%     46.25% # Class of committed instruction (Count)
system.cpu.commit.committedInstType_0::FloatCvt            0      0.00%     46.25% # Class of committed instruction (Count)
system.cpu.commit.committedInstType_0::FloatMult            0      0.00%     46.25% # Class of committed instruction (Count)
system.cpu.commit.committedInstType_0::FloatMultAcc            0      0.00%     46.25% # Class of committed instruction (Count)
system.cpu.commit.committedInstType_0::FloatDiv            0      0.00%     46.25% # Class of committed instruction (Count)
system.cpu.commit.committedInstType_0::FloatMisc            0      0.00%     46.25% # Class of committed instruction (Count)
system.cpu.commit.committedInstType_0::FloatSqrt            0      0.00%     46.25% # Class of committed instruction (Count)
system.cpu.commit.committedInstType_0::SimdAdd            0      0.00%     46.25% # Class of committed instruction (Count)
system.cpu.commit.committedInstType_0::SimdAddAcc            0      0.00%     46.25% # Class of committed instruction (Count)
system.cpu.commit.committedInstType_0::SimdAlu        16480      8.05%     54.30% # Class of committed instruction (Count)
system.cpu.commit.committedInstType_0::SimdCmp            0      0.00%     54.30% # Class of committed instruction (Count)
system.cpu.commit.committedInstType_0::SimdCvt           46      0.02%     54.32% # Class of committed instruction (Count)
system.cpu.commit.committedInstType_0::SimdMisc         8407      4.11%     58.43% # Class of committed instruction (Count)
system.cpu.commit.committedInstType_0::SimdMult            0      0.00%     58.43% # Class of committed instruction (Count)
system.cpu.commit.committedInstType_0::SimdMultAcc            0      0.00%     58.43% # Class of committed instruction (Count)
system.cpu.commit.committedInstType_0::SimdShift            0      0.00%     58.43% # Class of committed instruction (Count)
system.cpu.commit.committedInstType_0::SimdShiftAcc            0      0.00%     58.43% # Class of committed instruction (Count)
system.cpu.commit.committedInstType_0::SimdDiv            0      0.00%     58.43% # Class of committed instruction (Count)
system.cpu.commit.committedInstType_0::SimdSqrt            0      0.00%     58.43% # Class of committed instruction (Count)
system.cpu.commit.committedInstType_0::SimdFloatAdd            0      0.00%     58.43% # Class of committed instruction (Count)
system.cpu.commit.committedInstType_0::SimdFloatAlu            0      0.00%     58.43% # Class of committed instruction (Count)
system.cpu.commit.committedInstType_0::SimdFloatCmp            0      0.00%     58.43% # Class of committed instruction (Count)
system.cpu.commit.committedInstType_0::SimdFloatCvt         8192      4.00%     62.43% # Class of committed instruction (Count)
system.cpu.commit.committedInstType_0::SimdFloatDiv            0      0.00%     62.43% # Class of committed instruction (Count)
system.cpu.commit.committedInstType_0::SimdFloatMisc            0      0.00%     62.43% # Class of committed instruction (Count)
system.cpu.commit.committedInstType_0::SimdFloatMult            0      0.00%     62.43% # Class of committed instruction (Count)
system.cpu.commit.committedInstType_0::SimdFloatMultAcc            0      0.00%     62.43% # Class of committed instruction (Count)
system.cpu.commit.committedInstType_0::SimdFloatSqrt            0      0.00%     62.43% # Class of committed instruction (Count)
system.cpu.commit.committedInstType_0::SimdReduceAdd            0      0.00%     62.43% # Class of committed instruction (Count)
system.cpu.commit.committedInstType_0::SimdReduceAlu            0      0.00%     62.43% # Class of committed instruction (Count)
system.cpu.commit.committedInstType_0::SimdReduceCmp            0      0.00%     62.43% # Class of committed instruction (Count)
system.cpu.commit.committedInstType_0::SimdFloatReduceAdd            0      0.00%     62.43% # Class of committed instruction (Count)
system.cpu.commit.committedInstType_0::SimdFloatReduceCmp            0      0.00%     62.43% # Class of committed instruction (Count)
system.cpu.commit.committedInstType_0::SimdAes            0      0.00%     62.43% # Class of committed instruction (Count)
system.cpu.commit.committedInstType_0::SimdAesMix            0      0.00%     62.43% # Class of committed instruction (Count)
system.cpu.commit.committedInstType_0::SimdSha1Hash            0      0.00%     62.43% # Class of committed instruction (Count)
system.cpu.commit.committedInstType_0::SimdSha1Hash2            0      0.00%     62.43% # Class of committed instruction (Count)
system.cpu.commit.committedInstType_0::SimdSha256Hash            0      0.00%     62.43% # Class of committed instruction (Count)
system.cpu.commit.committedInstType_0::SimdSha256Hash2            0      0.00%     62.43% # Class of committed instruction (Count)
system.cpu.commit.committedInstType_0::SimdShaSigma2            0      0.00%     62.43% # Class of committed instruction (Count)
system.cpu.commit.committedInstType_0::SimdShaSigma3            0      0.00%     62.43% # Class of committed instruction (Count)
system.cpu.commit.committedInstType_0::SimdPredAlu            0      0.00%     62.43% # Class of committed instruction (Count)
system.cpu.commit.committedInstType_0::MemRead         1498      0.73%     63.16% # Class of committed instruction (Count)
system.cpu.commit.committedInstType_0::MemWrite         1171      0.57%     63.73% # Class of committed instruction (Count)
system.cpu.commit.committedInstType_0::FloatMemRead           54      0.03%     63.76% # Class of committed instruction (Count)
system.cpu.commit.committedInstType_0::FloatMemWrite        74195     36.24%    100.00% # Class of committed instruction (Count)
system.cpu.commit.committedInstType_0::IprAccess            0      0.00%    100.00% # Class of committed instruction (Count)
system.cpu.commit.committedInstType_0::InstPrefetch            0      0.00%    100.00% # Class of committed instruction (Count)
system.cpu.commit.committedInstType_0::total       204726                       # Class of committed instruction (Count)
system.cpu.commit.commitEligibleSamples          5180                       # number cycles where commit BW limit reached (Cycle)
system.cpu.dcache.demandHits::cpu.data           3652                       # number of demand (read+write) hits (Count)
system.cpu.dcache.demandHits::total              3652                       # number of demand (read+write) hits (Count)
system.cpu.dcache.overallHits::cpu.data          3652                       # number of overall hits (Count)
system.cpu.dcache.overallHits::total             3652                       # number of overall hits (Count)
system.cpu.dcache.demandMisses::cpu.data        74140                       # number of demand (read+write) misses (Count)
system.cpu.dcache.demandMisses::total           74140                       # number of demand (read+write) misses (Count)
system.cpu.dcache.overallMisses::cpu.data        74140                       # number of overall misses (Count)
system.cpu.dcache.overallMisses::total          74140                       # number of overall misses (Count)
system.cpu.dcache.demandMissLatency::cpu.data    502861000                       # number of demand (read+write) miss ticks (Tick)
system.cpu.dcache.demandMissLatency::total    502861000                       # number of demand (read+write) miss ticks (Tick)
system.cpu.dcache.overallMissLatency::cpu.data    502861000                       # number of overall miss ticks (Tick)
system.cpu.dcache.overallMissLatency::total    502861000                       # number of overall miss ticks (Tick)
system.cpu.dcache.demandAccesses::cpu.data        77792                       # number of demand (read+write) accesses (Count)
system.cpu.dcache.demandAccesses::total         77792                       # number of demand (read+write) accesses (Count)
system.cpu.dcache.overallAccesses::cpu.data        77792                       # number of overall (read+write) accesses (Count)
system.cpu.dcache.overallAccesses::total        77792                       # number of overall (read+write) accesses (Count)
system.cpu.dcache.demandMissRate::cpu.data     0.953054                       # miss rate for demand accesses (Ratio)
system.cpu.dcache.demandMissRate::total      0.953054                       # miss rate for demand accesses (Ratio)
system.cpu.dcache.overallMissRate::cpu.data     0.953054                       # miss rate for overall accesses (Ratio)
system.cpu.dcache.overallMissRate::total     0.953054                       # miss rate for overall accesses (Ratio)
system.cpu.dcache.demandAvgMissLatency::cpu.data  6782.586998                       # average overall miss latency ((Cycle/Count))
system.cpu.dcache.demandAvgMissLatency::total  6782.586998                       # average overall miss latency ((Cycle/Count))
system.cpu.dcache.overallAvgMissLatency::cpu.data  6782.586998                       # average overall miss latency ((Cycle/Count))
system.cpu.dcache.overallAvgMissLatency::total  6782.586998                       # average overall miss latency ((Cycle/Count))
system.cpu.dcache.blockedCycles::no_mshrs          365                       # number of cycles access was blocked (Cycle)
system.cpu.dcache.blockedCycles::no_targets            0                       # number of cycles access was blocked (Cycle)
system.cpu.dcache.blockedCauses::no_mshrs           15                       # number of times access was blocked (Count)
system.cpu.dcache.blockedCauses::no_targets            0                       # number of times access was blocked (Count)
system.cpu.dcache.avgBlocked::no_mshrs      24.333333                       # average number of cycles each access was blocked ((Cycle/Count))
system.cpu.dcache.avgBlocked::no_targets          nan                       # average number of cycles each access was blocked ((Cycle/Count))
system.cpu.dcache.writebacks::writebacks        73714                       # number of writebacks (Count)
system.cpu.dcache.writebacks::total             73714                       # number of writebacks (Count)
system.cpu.dcache.demandMshrHits::cpu.data          145                       # number of demand (read+write) MSHR hits (Count)
system.cpu.dcache.demandMshrHits::total           145                       # number of demand (read+write) MSHR hits (Count)
system.cpu.dcache.overallMshrHits::cpu.data          145                       # number of overall MSHR hits (Count)
system.cpu.dcache.overallMshrHits::total          145                       # number of overall MSHR hits (Count)
system.cpu.dcache.demandMshrMisses::cpu.data        73995                       # number of demand (read+write) MSHR misses (Count)
system.cpu.dcache.demandMshrMisses::total        73995                       # number of demand (read+write) MSHR misses (Count)
system.cpu.dcache.overallMshrMisses::cpu.data        73995                       # number of overall MSHR misses (Count)
system.cpu.dcache.overallMshrMisses::total        73995                       # number of overall MSHR misses (Count)
system.cpu.dcache.demandMshrMissLatency::cpu.data    342277000                       # number of demand (read+write) MSHR miss ticks (Tick)
system.cpu.dcache.demandMshrMissLatency::total    342277000                       # number of demand (read+write) MSHR miss ticks (Tick)
system.cpu.dcache.overallMshrMissLatency::cpu.data    342277000                       # number of overall MSHR miss ticks (Tick)
system.cpu.dcache.overallMshrMissLatency::total    342277000                       # number of overall MSHR miss ticks (Tick)
system.cpu.dcache.demandMshrMissRate::cpu.data     0.951190                       # mshr miss ratio for demand accesses (Ratio)
system.cpu.dcache.demandMshrMissRate::total     0.951190                       # mshr miss ratio for demand accesses (Ratio)
system.cpu.dcache.overallMshrMissRate::cpu.data     0.951190                       # mshr miss ratio for overall accesses (Ratio)
system.cpu.dcache.overallMshrMissRate::total     0.951190                       # mshr miss ratio for overall accesses (Ratio)
system.cpu.dcache.demandAvgMshrMissLatency::cpu.data  4625.677411                       # average overall mshr miss latency ((Cycle/Count))
system.cpu.dcache.demandAvgMshrMissLatency::total  4625.677411                       # average overall mshr miss latency ((Cycle/Count))
system.cpu.dcache.overallAvgMshrMissLatency::cpu.data  4625.677411                       # average overall mshr miss latency ((Cycle/Count))
system.cpu.dcache.overallAvgMshrMissLatency::total  4625.677411                       # average overall mshr miss latency ((Cycle/Count))
system.cpu.dcache.replacements                  73714                       # number of replacements (Count)
system.cpu.dcache.ReadReq.hits::cpu.data         2158                       # number of ReadReq hits (Count)
system.cpu.dcache.ReadReq.hits::total            2158                       # number of ReadReq hits (Count)
system.cpu.dcache.ReadReq.misses::cpu.data          267                       # number of ReadReq misses (Count)
system.cpu.dcache.ReadReq.misses::total           267                       # number of ReadReq misses (Count)
system.cpu.dcache.ReadReq.missLatency::cpu.data     26552000                       # number of ReadReq miss ticks (Tick)
system.cpu.dcache.ReadReq.missLatency::total     26552000                       # number of ReadReq miss ticks (Tick)
system.cpu.dcache.ReadReq.accesses::cpu.data         2425                       # number of ReadReq accesses(hits+misses) (Count)
system.cpu.dcache.ReadReq.accesses::total         2425                       # number of ReadReq accesses(hits+misses) (Count)
system.cpu.dcache.ReadReq.missRate::cpu.data     0.110103                       # miss rate for ReadReq accesses (Ratio)
system.cpu.dcache.ReadReq.missRate::total     0.110103                       # miss rate for ReadReq accesses (Ratio)
system.cpu.dcache.ReadReq.avgMissLatency::cpu.data 99445.692884                       # average ReadReq miss latency ((Tick/Count))
system.cpu.dcache.ReadReq.avgMissLatency::total 99445.692884                       # average ReadReq miss latency ((Tick/Count))
system.cpu.dcache.ReadReq.mshrHits::cpu.data          144                       # number of ReadReq MSHR hits (Count)
system.cpu.dcache.ReadReq.mshrHits::total          144                       # number of ReadReq MSHR hits (Count)
system.cpu.dcache.ReadReq.mshrMisses::cpu.data          123                       # number of ReadReq MSHR misses (Count)
system.cpu.dcache.ReadReq.mshrMisses::total          123                       # number of ReadReq MSHR misses (Count)
system.cpu.dcache.ReadReq.mshrMissLatency::cpu.data     13714000                       # number of ReadReq MSHR miss ticks (Tick)
system.cpu.dcache.ReadReq.mshrMissLatency::total     13714000                       # number of ReadReq MSHR miss ticks (Tick)
system.cpu.dcache.ReadReq.mshrMissRate::cpu.data     0.050722                       # mshr miss rate for ReadReq accesses (Ratio)
system.cpu.dcache.ReadReq.mshrMissRate::total     0.050722                       # mshr miss rate for ReadReq accesses (Ratio)
system.cpu.dcache.ReadReq.avgMshrMissLatency::cpu.data 111495.934959                       # average ReadReq mshr miss latency ((Tick/Count))
system.cpu.dcache.ReadReq.avgMshrMissLatency::total 111495.934959                       # average ReadReq mshr miss latency ((Tick/Count))
system.cpu.dcache.WriteReq.hits::cpu.data         1494                       # number of WriteReq hits (Count)
system.cpu.dcache.WriteReq.hits::total           1494                       # number of WriteReq hits (Count)
system.cpu.dcache.WriteReq.misses::cpu.data        73873                       # number of WriteReq misses (Count)
system.cpu.dcache.WriteReq.misses::total        73873                       # number of WriteReq misses (Count)
system.cpu.dcache.WriteReq.missLatency::cpu.data    476309000                       # number of WriteReq miss ticks (Tick)
system.cpu.dcache.WriteReq.missLatency::total    476309000                       # number of WriteReq miss ticks (Tick)
system.cpu.dcache.WriteReq.accesses::cpu.data        75367                       # number of WriteReq accesses(hits+misses) (Count)
system.cpu.dcache.WriteReq.accesses::total        75367                       # number of WriteReq accesses(hits+misses) (Count)
system.cpu.dcache.WriteReq.missRate::cpu.data     0.980177                       # miss rate for WriteReq accesses (Ratio)
system.cpu.dcache.WriteReq.missRate::total     0.980177                       # miss rate for WriteReq accesses (Ratio)
system.cpu.dcache.WriteReq.avgMissLatency::cpu.data  6447.673710                       # average WriteReq miss latency ((Tick/Count))
system.cpu.dcache.WriteReq.avgMissLatency::total  6447.673710                       # average WriteReq miss latency ((Tick/Count))
system.cpu.dcache.WriteReq.mshrHits::cpu.data            1                       # number of WriteReq MSHR hits (Count)
system.cpu.dcache.WriteReq.mshrHits::total            1                       # number of WriteReq MSHR hits (Count)
system.cpu.dcache.WriteReq.mshrMisses::cpu.data        73872                       # number of WriteReq MSHR misses (Count)
system.cpu.dcache.WriteReq.mshrMisses::total        73872                       # number of WriteReq MSHR misses (Count)
system.cpu.dcache.WriteReq.mshrMissLatency::cpu.data    328563000                       # number of WriteReq MSHR miss ticks (Tick)
system.cpu.dcache.WriteReq.mshrMissLatency::total    328563000                       # number of WriteReq MSHR miss ticks (Tick)
system.cpu.dcache.WriteReq.mshrMissRate::cpu.data     0.980164                       # mshr miss rate for WriteReq accesses (Ratio)
system.cpu.dcache.WriteReq.mshrMissRate::total     0.980164                       # mshr miss rate for WriteReq accesses (Ratio)
system.cpu.dcache.WriteReq.avgMshrMissLatency::cpu.data  4447.733918                       # average WriteReq mshr miss latency ((Tick/Count))
system.cpu.dcache.WriteReq.avgMshrMissLatency::total  4447.733918                       # average WriteReq mshr miss latency ((Tick/Count))
system.cpu.dcache.power_state.pwrStateResidencyTicks::UNDEFINED    513449000                       # Cumulative time (in ticks) in various power states (Tick)
system.cpu.dcache.tags.tagsInUse           223.977587                       # Average ticks per tags in use ((Tick/Count))
system.cpu.dcache.tags.totalRefs                77649                       # Total number of references to valid blocks. (Count)
system.cpu.dcache.tags.sampledRefs              73966                       # Sample count of references to valid blocks. (Count)
system.cpu.dcache.tags.avgRefs               1.049793                       # Average number of references to valid blocks. ((Count/Count))
system.cpu.dcache.tags.warmupTick              225000                       # The tick when the warmup percentage was hit. (Tick)
system.cpu.dcache.tags.occupancies::cpu.data   223.977587                       # Average occupied blocks per tick, per requestor ((Count/Tick))
system.cpu.dcache.tags.avgOccs::cpu.data     0.218728                       # Average percentage of cache occupancy ((Ratio/Tick))
system.cpu.dcache.tags.avgOccs::total        0.218728                       # Average percentage of cache occupancy ((Ratio/Tick))
system.cpu.dcache.tags.occupanciesTaskId::1024          252                       # Occupied blocks per task id (Count)
system.cpu.dcache.tags.ageTaskId_1024::0           34                       # Occupied blocks per task id, per block age (Count)
system.cpu.dcache.tags.ageTaskId_1024::2          218                       # Occupied blocks per task id, per block age (Count)
system.cpu.dcache.tags.ratioOccsTaskId::1024     0.246094                       # Ratio of occupied blocks and all blocks, per task id (Ratio)
system.cpu.dcache.tags.tagAccesses             229550                       # Number of tag accesses (Count)
system.cpu.dcache.tags.dataAccesses            229550                       # Number of data accesses (Count)
system.cpu.dcache.tags.power_state.pwrStateResidencyTicks::UNDEFINED    513449000                       # Cumulative time (in ticks) in various power states (Tick)
system.cpu.decode.idleCycles                    24956                       # Number of cycles decode is idle (Cycle)
system.cpu.decode.blockedCycles                438185                       # Number of cycles decode is blocked (Cycle)
system.cpu.decode.runCycles                      4618                       # Number of cycles decode is running (Cycle)
system.cpu.decode.unblockCycles                 24027                       # Number of cycles decode is unblocking (Cycle)
system.cpu.decode.squashCycles                    602                       # Number of cycles decode is squashing (Cycle)
system.cpu.decode.branchResolved                 9494                       # Number of times decode resolved a branch (Count)
system.cpu.decode.branchMispred                   229                       # Number of times decode detected a branch misprediction (Count)
system.cpu.decode.decodedInsts                 220853                       # Number of instructions handled by decode (Count)
system.cpu.decode.squashedInsts                  1168                       # Number of squashed instructions handled by decode (Count)
system.cpu.fetch.icacheStallCycles              33133                       # Number of cycles fetch is stalled on an Icache miss (Cycle)
system.cpu.fetch.insts                         150239                       # Number of instructions fetch has processed (Count)
system.cpu.fetch.branches                       12208                       # Number of branches that fetch encountered (Count)
system.cpu.fetch.predictedBranches               9630                       # Number of branches that fetch has predicted taken (Count)
system.cpu.fetch.cycles                        457526                       # Number of cycles fetch has run and was not squashing or blocked (Cycle)
system.cpu.fetch.squashCycles                    1644                       # Number of cycles fetch has spent squashing (Cycle)
system.cpu.fetch.miscStallCycles                  130                       # Number of cycles fetch has spent waiting on interrupts, or bad addresses, or out of MSHRs (Cycle)
system.cpu.fetch.pendingTrapStallCycles           762                       # Number of stall cycles due to pending traps (Cycle)
system.cpu.fetch.pendingQuiesceStallCycles            4                       # Number of stall cycles due to pending quiesce instructions (Cycle)
system.cpu.fetch.icacheWaitRetryStallCycles           11                       # Number of stall cycles due to full MSHR (Cycle)
system.cpu.fetch.cacheLines                     18866                       # Number of cache lines fetched (Count)
system.cpu.fetch.icacheSquashes                   355                       # Number of outstanding Icache misses that were squashed (Count)
system.cpu.fetch.nisnDist::samples             492388                       # Number of instructions fetched each cycle (Total) (Count)
system.cpu.fetch.nisnDist::mean              0.456303                       # Number of instructions fetched each cycle (Total) (Count)
system.cpu.fetch.nisnDist::stdev             1.673851                       # Number of instructions fetched each cycle (Total) (Count)
system.cpu.fetch.nisnDist::underflows               0      0.00%      0.00% # Number of instructions fetched each cycle (Total) (Count)
system.cpu.fetch.nisnDist::0                   448879     91.16%     91.16% # Number of instructions fetched each cycle (Total) (Count)
system.cpu.fetch.nisnDist::1                     7410      1.50%     92.67% # Number of instructions fetched each cycle (Total) (Count)
system.cpu.fetch.nisnDist::2                     3268      0.66%     93.33% # Number of instructions fetched each cycle (Total) (Count)
system.cpu.fetch.nisnDist::3                     3409      0.69%     94.02% # Number of instructions fetched each cycle (Total) (Count)
system.cpu.fetch.nisnDist::4                     3652      0.74%     94.77% # Number of instructions fetched each cycle (Total) (Count)
system.cpu.fetch.nisnDist::5                     3409      0.69%     95.46% # Number of instructions fetched each cycle (Total) (Count)
system.cpu.fetch.nisnDist::6                     3348      0.68%     96.14% # Number of instructions fetched each cycle (Total) (Count)
system.cpu.fetch.nisnDist::7                     3340      0.68%     96.82% # Number of instructions fetched each cycle (Total) (Count)
system.cpu.fetch.nisnDist::8                    15673      3.18%    100.00% # Number of instructions fetched each cycle (Total) (Count)
system.cpu.fetch.nisnDist::overflows                0      0.00%    100.00% # Number of instructions fetched each cycle (Total) (Count)
system.cpu.fetch.nisnDist::min_value                0                       # Number of instructions fetched each cycle (Total) (Count)
system.cpu.fetch.nisnDist::max_value                8                       # Number of instructions fetched each cycle (Total) (Count)
system.cpu.fetch.nisnDist::total               492388                       # Number of instructions fetched each cycle (Total) (Count)
system.cpu.fetch.branchRate                  0.023776                       # Number of branch fetches per cycle (Ratio)
system.cpu.fetch.rate                        0.292607                       # Number of inst fetches per cycle ((Count/Cycle))
system.cpu.icache.demandHits::cpu.inst          18235                       # number of demand (read+write) hits (Count)
system.cpu.icache.demandHits::total             18235                       # number of demand (read+write) hits (Count)
system.cpu.icache.overallHits::cpu.inst         18235                       # number of overall hits (Count)
system.cpu.icache.overallHits::total            18235                       # number of overall hits (Count)
system.cpu.icache.demandMisses::cpu.inst          631                       # number of demand (read+write) misses (Count)
system.cpu.icache.demandMisses::total             631                       # number of demand (read+write) misses (Count)
system.cpu.icache.overallMisses::cpu.inst          631                       # number of overall misses (Count)
system.cpu.icache.overallMisses::total            631                       # number of overall misses (Count)
system.cpu.icache.demandMissLatency::cpu.inst     61093000                       # number of demand (read+write) miss ticks (Tick)
system.cpu.icache.demandMissLatency::total     61093000                       # number of demand (read+write) miss ticks (Tick)
system.cpu.icache.overallMissLatency::cpu.inst     61093000                       # number of overall miss ticks (Tick)
system.cpu.icache.overallMissLatency::total     61093000                       # number of overall miss ticks (Tick)
system.cpu.icache.demandAccesses::cpu.inst        18866                       # number of demand (read+write) accesses (Count)
system.cpu.icache.demandAccesses::total         18866                       # number of demand (read+write) accesses (Count)
system.cpu.icache.overallAccesses::cpu.inst        18866                       # number of overall (read+write) accesses (Count)
system.cpu.icache.overallAccesses::total        18866                       # number of overall (read+write) accesses (Count)
system.cpu.icache.demandMissRate::cpu.inst     0.033446                       # miss rate for demand accesses (Ratio)
system.cpu.icache.demandMissRate::total      0.033446                       # miss rate for demand accesses (Ratio)
system.cpu.icache.overallMissRate::cpu.inst     0.033446                       # miss rate for overall accesses (Ratio)
system.cpu.icache.overallMissRate::total     0.033446                       # miss rate for overall accesses (Ratio)
system.cpu.icache.demandAvgMissLatency::cpu.inst 96819.334390                       # average overall miss latency ((Cycle/Count))
system.cpu.icache.demandAvgMissLatency::total 96819.334390                       # average overall miss latency ((Cycle/Count))
system.cpu.icache.overallAvgMissLatency::cpu.inst 96819.334390                       # average overall miss latency ((Cycle/Count))
system.cpu.icache.overallAvgMissLatency::total 96819.334390                       # average overall miss latency ((Cycle/Count))
system.cpu.icache.blockedCycles::no_mshrs           72                       # number of cycles access was blocked (Cycle)
system.cpu.icache.blockedCycles::no_targets            0                       # number of cycles access was blocked (Cycle)
system.cpu.icache.blockedCauses::no_mshrs            3                       # number of times access was blocked (Count)
system.cpu.icache.blockedCauses::no_targets            0                       # number of times access was blocked (Count)
system.cpu.icache.avgBlocked::no_mshrs             24                       # average number of cycles each access was blocked ((Cycle/Count))
system.cpu.icache.avgBlocked::no_targets          nan                       # average number of cycles each access was blocked ((Cycle/Count))
system.cpu.icache.demandMshrHits::cpu.inst          151                       # number of demand (read+write) MSHR hits (Count)
system.cpu.icache.demandMshrHits::total           151                       # number of demand (read+write) MSHR hits (Count)
system.cpu.icache.overallMshrHits::cpu.inst          151                       # number of overall MSHR hits (Count)
system.cpu.icache.overallMshrHits::total          151                       # number of overall MSHR hits (Count)
system.cpu.icache.demandMshrMisses::cpu.inst          480                       # number of demand (read+write) MSHR misses (Count)
system.cpu.icache.demandMshrMisses::total          480                       # number of demand (read+write) MSHR misses (Count)
system.cpu.icache.overallMshrMisses::cpu.inst          480                       # number of overall MSHR misses (Count)
system.cpu.icache.overallMshrMisses::total          480                       # number of overall MSHR misses (Count)
system.cpu.icache.demandMshrMissLatency::cpu.inst     48723000                       # number of demand (read+write) MSHR miss ticks (Tick)
system.cpu.icache.demandMshrMissLatency::total     48723000                       # number of demand (read+write) MSHR miss ticks (Tick)
system.cpu.icache.overallMshrMissLatency::cpu.inst     48723000                       # number of overall MSHR miss ticks (Tick)
system.cpu.icache.overallMshrMissLatency::total     48723000                       # number of overall MSHR miss ticks (Tick)
system.cpu.icache.demandMshrMissRate::cpu.inst     0.025443                       # mshr miss ratio for demand accesses (Ratio)
system.cpu.icache.demandMshrMissRate::total     0.025443                       # mshr miss ratio for demand accesses (Ratio)
system.cpu.icache.overallMshrMissRate::cpu.inst     0.025443                       # mshr miss ratio for overall accesses (Ratio)
system.cpu.icache.overallMshrMissRate::total     0.025443                       # mshr miss ratio for overall accesses (Ratio)
system.cpu.icache.demandAvgMshrMissLatency::cpu.inst 101506.250000                       # average overall mshr miss latency ((Cycle/Count))
system.cpu.icache.demandAvgMshrMissLatency::total 101506.250000                       # average overall mshr miss latency ((Cycle/Count))
system.cpu.icache.overallAvgMshrMissLatency::cpu.inst 101506.250000                       # average overall mshr miss latency ((Cycle/Count))
system.cpu.icache.overallAvgMshrMissLatency::total 101506.250000                       # average overall mshr miss latency ((Cycle/Count))
system.cpu.icache.replacements                    235                       # number of replacements (Count)
system.cpu.icache.ReadReq.hits::cpu.inst        18235                       # number of ReadReq hits (Count)
system.cpu.icache.ReadReq.hits::total           18235                       # number of ReadReq hits (Count)
system.cpu.icache.ReadReq.misses::cpu.inst          631                       # number of ReadReq misses (Count)
system.cpu.icache.ReadReq.misses::total           631                       # number of ReadReq misses (Count)
system.cpu.icache.ReadReq.missLatency::cpu.inst     61093000                       # number of ReadReq miss ticks (Tick)
system.cpu.icache.ReadReq.missLatency::total     61093000                       # number of ReadReq miss ticks (Tick)
system.cpu.icache.ReadReq.accesses::cpu.inst        18866                       # number of ReadReq accesses(hits+misses) (Count)
system.cpu.icache.ReadReq.accesses::total        18866                       # number of ReadReq accesses(hits+misses) (Count)
system.cpu.icache.ReadReq.missRate::cpu.inst     0.033446                       # miss rate for ReadReq accesses (Ratio)
system.cpu.icache.ReadReq.missRate::total     0.033446                       # miss rate for ReadReq accesses (Ratio)
system.cpu.icache.ReadReq.avgMissLatency::cpu.inst 96819.334390                       # average ReadReq miss latency ((Tick/Count))
system.cpu.icache.ReadReq.avgMissLatency::total 96819.334390                       # average ReadReq miss latency ((Tick/Count))
system.cpu.icache.ReadReq.mshrHits::cpu.inst          151                       # number of ReadReq MSHR hits (Count)
system.cpu.icache.ReadReq.mshrHits::total          151                       # number of ReadReq MSHR hits (Count)
system.cpu.icache.ReadReq.mshrMisses::cpu.inst          480                       # number of ReadReq MSHR misses (Count)
system.cpu.icache.ReadReq.mshrMisses::total          480                       # number of ReadReq MSHR misses (Count)
system.cpu.icache.ReadReq.mshrMissLatency::cpu.inst     48723000                       # number of ReadReq MSHR miss ticks (Tick)
system.cpu.icache.ReadReq.mshrMissLatency::total     48723000                       # number of ReadReq MSHR miss ticks (Tick)
system.cpu.icache.ReadReq.mshrMissRate::cpu.inst     0.025443                       # mshr miss rate for ReadReq accesses (Ratio)
system.cpu.icache.ReadReq.mshrMissRate::total     0.025443                       # mshr miss rate for ReadReq accesses (Ratio)
system.cpu.icache.ReadReq.avgMshrMissLatency::cpu.inst 101506.250000                       # average ReadReq mshr miss latency ((Tick/Count))
system.cpu.icache.ReadReq.avgMshrMissLatency::total 101506.250000                       # average ReadReq mshr miss latency ((Tick/Count))
system.cpu.icache.power_state.pwrStateResidencyTicks::UNDEFINED    513449000                       # Cumulative time (in ticks) in various power states (Tick)
system.cpu.icache.tags.tagsInUse           233.830920                       # Average ticks per tags in use ((Tick/Count))
system.cpu.icache.tags.totalRefs                18715                       # Total number of references to valid blocks. (Count)
system.cpu.icache.tags.sampledRefs                480                       # Sample count of references to valid blocks. (Count)
system.cpu.icache.tags.avgRefs              38.989583                       # Average number of references to valid blocks. ((Count/Count))
system.cpu.icache.tags.warmupTick              107000                       # The tick when the warmup percentage was hit. (Tick)
system.cpu.icache.tags.occupancies::cpu.inst   233.830920                       # Average occupied blocks per tick, per requestor ((Count/Tick))
system.cpu.icache.tags.avgOccs::cpu.inst     0.913402                       # Average percentage of cache occupancy ((Ratio/Tick))
system.cpu.icache.tags.avgOccs::total        0.913402                       # Average percentage of cache occupancy ((Ratio/Tick))
system.cpu.icache.tags.occupanciesTaskId::1024          245                       # Occupied blocks per task id (Count)
system.cpu.icache.tags.ageTaskId_1024::0           37                       # Occupied blocks per task id, per block age (Count)
system.cpu.icache.tags.ageTaskId_1024::2          208                       # Occupied blocks per task id, per block age (Count)
system.cpu.icache.tags.ratioOccsTaskId::1024     0.957031                       # Ratio of occupied blocks and all blocks, per task id (Ratio)
system.cpu.icache.tags.tagAccesses              38212                       # Number of tag accesses (Count)
system.cpu.icache.tags.dataAccesses             38212                       # Number of data accesses (Count)
system.cpu.icache.tags.power_state.pwrStateResidencyTicks::UNDEFINED    513449000                       # Cumulative time (in ticks) in various power states (Tick)
system.cpu.interrupts.clk_domain.clock          16000                       # Clock period in ticks (Tick)
system.cpu.lsq0.forwLoads                         191                       # Number of loads that had data forwarded from stores (Count)
system.cpu.lsq0.squashedLoads                    1565                       # Number of loads squashed (Count)
system.cpu.lsq0.ignoredResponses                    2                       # Number of memory responses ignored because the instruction is squashed (Count)
system.cpu.lsq0.memOrderViolation                  10                       # Number of memory ordering violations (Count)
system.cpu.lsq0.squashedStores                    953                       # Number of stores squashed (Count)
system.cpu.lsq0.rescheduledLoads                    1                       # Number of loads that were rescheduled (Count)
system.cpu.lsq0.blockedByCache                     10                       # Number of times an access to memory failed due to the cache being blocked (Count)
system.cpu.lsq0.loadToUse::samples               1552                       # Distribution of cycle latency between the first time a load is issued and its completion (Unspecified)
system.cpu.lsq0.loadToUse::mean             12.467139                       # Distribution of cycle latency between the first time a load is issued and its completion (Unspecified)
system.cpu.lsq0.loadToUse::stdev            31.858107                       # Distribution of cycle latency between the first time a load is issued and its completion (Unspecified)
system.cpu.lsq0.loadToUse::0-9                   1414     91.11%     91.11% # Distribution of cycle latency between the first time a load is issued and its completion (Unspecified)
system.cpu.lsq0.loadToUse::10-19                    2      0.13%     91.24% # Distribution of cycle latency between the first time a load is issued and its completion (Unspecified)
system.cpu.lsq0.loadToUse::20-29                    3      0.19%     91.43% # Distribution of cycle latency between the first time a load is issued and its completion (Unspecified)
system.cpu.lsq0.loadToUse::30-39                    1      0.06%     91.49% # Distribution of cycle latency between the first time a load is issued and its completion (Unspecified)
system.cpu.lsq0.loadToUse::40-49                    1      0.06%     91.56% # Distribution of cycle latency between the first time a load is issued and its completion (Unspecified)
system.cpu.lsq0.loadToUse::50-59                    4      0.26%     91.82% # Distribution of cycle latency between the first time a load is issued and its completion (Unspecified)
system.cpu.lsq0.loadToUse::60-69                    2      0.13%     91.95% # Distribution of cycle latency between the first time a load is issued and its completion (Unspecified)
system.cpu.lsq0.loadToUse::70-79                    2      0.13%     92.07% # Distribution of cycle latency between the first time a load is issued and its completion (Unspecified)
system.cpu.lsq0.loadToUse::80-89                    8      0.52%     92.59% # Distribution of cycle latency between the first time a load is issued and its completion (Unspecified)
system.cpu.lsq0.loadToUse::90-99                   25      1.61%     94.20% # Distribution of cycle latency between the first time a load is issued and its completion (Unspecified)
system.cpu.lsq0.loadToUse::100-109                 23      1.48%     95.68% # Distribution of cycle latency between the first time a load is issued and its completion (Unspecified)
system.cpu.lsq0.loadToUse::110-119                 23      1.48%     97.16% # Distribution of cycle latency between the first time a load is issued and its completion (Unspecified)
system.cpu.lsq0.loadToUse::120-129                 33      2.13%     99.29% # Distribution of cycle latency between the first time a load is issued and its completion (Unspecified)
system.cpu.lsq0.loadToUse::130-139                  3      0.19%     99.48% # Distribution of cycle latency between the first time a load is issued and its completion (Unspecified)
system.cpu.lsq0.loadToUse::160-169                  2      0.13%     99.61% # Distribution of cycle latency between the first time a load is issued and its completion (Unspecified)
system.cpu.lsq0.loadToUse::200-209                  5      0.32%     99.94% # Distribution of cycle latency between the first time a load is issued and its completion (Unspecified)
system.cpu.lsq0.loadToUse::280-289                  1      0.06%    100.00% # Distribution of cycle latency between the first time a load is issued and its completion (Unspecified)
system.cpu.lsq0.loadToUse::min_value                2                       # Distribution of cycle latency between the first time a load is issued and its completion (Unspecified)
system.cpu.lsq0.loadToUse::max_value              283                       # Distribution of cycle latency between the first time a load is issued and its completion (Unspecified)
system.cpu.lsq0.loadToUse::total                 1552                       # Distribution of cycle latency between the first time a load is issued and its completion (Unspecified)
system.cpu.mmu.dtb.rdAccesses                    2685                       # TLB accesses on read requests (Count)
system.cpu.mmu.dtb.wrAccesses                   75899                       # TLB accesses on write requests (Count)
system.cpu.mmu.dtb.rdMisses                        77                       # TLB misses on read requests (Count)
system.cpu.mmu.dtb.wrMisses                        33                       # TLB misses on write requests (Count)
system.cpu.mmu.dtb.walker.power_state.pwrStateResidencyTicks::UNDEFINED    513449000                       # Cumulative time (in ticks) in various power states (Tick)
system.cpu.mmu.itb.rdAccesses                       0                       # TLB accesses on read requests (Count)
system.cpu.mmu.itb.wrAccesses                   18999                       # TLB accesses on write requests (Count)
system.cpu.mmu.itb.rdMisses                         0                       # TLB misses on read requests (Count)
system.cpu.mmu.itb.wrMisses                       175                       # TLB misses on write requests (Count)
system.cpu.mmu.itb.walker.power_state.pwrStateResidencyTicks::UNDEFINED    513449000                       # Cumulative time (in ticks) in various power states (Tick)
system.cpu.power_state.pwrStateResidencyTicks::ON    513449000                       # Cumulative time (in ticks) in various power states (Tick)
system.cpu.rename.squashCycles                    602                       # Number of cycles rename is squashing (Cycle)
system.cpu.rename.idleCycles                    32534                       # Number of cycles rename is idle (Cycle)
system.cpu.rename.blockCycles                   42510                       # Number of cycles rename is blocking (Cycle)
system.cpu.rename.serializeStallCycles             35                       # count of cycles rename stalled for serializing inst (Cycle)
system.cpu.rename.runCycles                     20529                       # Number of cycles rename is running (Cycle)
system.cpu.rename.unblockCycles                396178                       # Number of cycles rename is unblocking (Cycle)
system.cpu.rename.renamedInsts                 219711                       # Number of instructions processed by rename (Count)
system.cpu.rename.ROBFullEvents                    14                       # Number of times rename has blocked due to ROB full (Count)
system.cpu.rename.IQFullEvents                    139                       # Number of times rename has blocked due to IQ full (Count)
system.cpu.rename.LQFullEvents                      1                       # Number of times rename has blocked due to LQ full (Count)
[...]
system.victimbus.transDist::WritebackDirty        77284                       # Transaction distribution (Count)
system.victimbus.transDist::WritebackClean         3838                       # Transaction distribution (Count)
system.victimbus.transDist::UpgradeReq             30                       # Transaction distribution (Count)
system.victimbus.transDist::UpgradeResp            30                       # Transaction distribution (Count)
system.victimbus.transDist::ReadExReq           73843                       # Transaction distribution (Count)
system.victimbus.transDist::ReadExResp          73843                       # Transaction distribution (Count)
system.victimbus.transDist::ReadSharedReq          123                       # Transaction distribution (Count)
system.victimbus.pktCount_system.cpu.dcache.mem_side_port::system.victimcache.cpu_side_port       221706                       # Packet count per connected requestor and responder (Count)
system.victimbus.pktSize_system.cpu.dcache.mem_side_port::system.victimcache.cpu_side_port      9451520                       # Cumulative packet size per connected requestor and responder (Byte)
system.victimbus.snoops                          7408                       # Total snoops (Count)
system.victimbus.snoopTraffic                  474112                       # Total snoop traffic (Byte)
system.victimbus.snoopFanout::samples           81404                       # Request fanout histogram (Count)
system.victimbus.snoopFanout::mean           0.047148                       # Request fanout histogram (Count)
system.victimbus.snoopFanout::stdev          0.211956                       # Request fanout histogram (Count)
system.victimbus.snoopFanout::underflows            0      0.00%      0.00% # Request fanout histogram (Count)
system.victimbus.snoopFanout::0                 77566     95.29%     95.29% # Request fanout histogram (Count)
system.victimbus.snoopFanout::1                  3838      4.71%    100.00% # Request fanout histogram (Count)
system.victimbus.snoopFanout::overflows             0      0.00%    100.00% # Request fanout histogram (Count)
system.victimbus.snoopFanout::min_value             0                       # Request fanout histogram (Count)
system.victimbus.snoopFanout::max_value             1                       # Request fanout histogram (Count)
system.victimbus.snoopFanout::total             81404                       # Request fanout histogram (Count)
system.victimbus.power_state.pwrStateResidencyTicks::UNDEFINED    513449000                       # Cumulative time (in ticks) in various power states (Tick)
system.victimbus.reqLayer0.occupancy        221424000                       # Layer occupancy (ticks) (Tick)
system.victimbus.reqLayer0.utilization            0.4                       # Layer utilization (Ratio)
system.victimbus.respLayer0.occupancy       221884004                       # Layer occupancy (ticks) (Tick)
system.victimbus.respLayer0.utilization           0.4                       # Layer utilization (Ratio)
system.victimbus.snoop_filter.totRequests       147710                       # Total number of requests made to the snoop filter. (Count)
system.victimbus.snoop_filter.hitSingleRequests        73744                       # Number of requests hitting in the snoop filter with a single holder of the requested data. (Count)
system.victimbus.snoop_filter.hitMultiRequests            0                       # Number of requests hitting in the snoop filter with multiple (>1) holders of the requested data. (Count)
system.victimbus.snoop_filter.totSnoops          3838                       # Total number of snoops made to the snoop filter. (Count)
system.victimbus.snoop_filter.hitSingleSnoops         3838                       # Number of snoops hitting in the snoop filter with a single holder of the requested data. (Count)
system.victimbus.snoop_filter.hitMultiSnoops            0                       # Number of snoops hitting in the snoop filter with multiple (>1) holders of the requested data. (Count)
system.victimcache.demandHits::cpu.data         70128                       # number of demand (read+write) hits (Count)
system.victimcache.demandHits::total            70128                       # number of demand (read+write) hits (Count)
system.victimcache.overallHits::cpu.data        70128                       # number of overall hits (Count)
system.victimcache.overallHits::total           70128                       # number of overall hits (Count)
system.victimcache.demandMisses::cpu.data         3838                       # number of demand (read+write) misses (Count)
system.victimcache.demandMisses::total           3838                       # number of demand (read+write) misses (Count)
system.victimcache.overallMisses::cpu.data         3838                       # number of overall misses (Count)
system.victimcache.overallMisses::total          3838                       # number of overall misses (Count)
system.victimcache.demandMissLatency::cpu.data    118675000                       # number of demand (read+write) miss ticks (Tick)
system.victimcache.demandMissLatency::total    118675000                       # number of demand (read+write) miss ticks (Tick)
system.victimcache.overallMissLatency::cpu.data    118675000                       # number of overall miss ticks (Tick)
system.victimcache.overallMissLatency::total    118675000                       # number of overall miss ticks (Tick)
system.victimcache.demandAccesses::cpu.data        73966                       # number of demand (read+write) accesses (Count)
system.victimcache.demandAccesses::total        73966                       # number of demand (read+write) accesses (Count)
system.victimcache.overallAccesses::cpu.data        73966                       # number of overall (read+write) accesses (Count)
system.victimcache.overallAccesses::total        73966                       # number of overall (read+write) accesses (Count)
system.victimcache.demandMissRate::cpu.data     0.051889                       # miss rate for demand accesses (Ratio)
system.victimcache.demandMissRate::total     0.051889                       # miss rate for demand accesses (Ratio)
system.victimcache.overallMissRate::cpu.data     0.051889                       # miss rate for overall accesses (Ratio)
system.victimcache.overallMissRate::total     0.051889                       # miss rate for overall accesses (Ratio)
system.victimcache.demandAvgMissLatency::cpu.data 30921.052632                       # average overall miss latency ((Cycle/Count))
system.victimcache.demandAvgMissLatency::total 30921.052632                       # average overall miss latency ((Cycle/Count))
system.victimcache.overallAvgMissLatency::cpu.data 30921.052632                       # average overall miss latency ((Cycle/Count))
system.victimcache.overallAvgMissLatency::total 30921.052632                       # average overall miss latency ((Cycle/Count))
system.victimcache.blockedCycles::no_mshrs          322                       # number of cycles access was blocked (Cycle)
system.victimcache.blockedCycles::no_targets            0                       # number of cycles access was blocked (Cycle)
system.victimcache.blockedCauses::no_mshrs            9                       # number of times access was blocked (Count)
system.victimcache.blockedCauses::no_targets            0                       # number of times access was blocked (Count)
system.victimcache.avgBlocked::no_mshrs     35.777778                       # average number of cycles each access was blocked ((Cycle/Count))
system.victimcache.avgBlocked::no_targets          nan                       # average number of cycles each access was blocked ((Cycle/Count))
system.victimcache.writebacks::writebacks         7408                       # number of writebacks (Count)
system.victimcache.writebacks::total             7408                       # number of writebacks (Count)
system.victimcache.demandMshrMisses::cpu.data         3838                       # number of demand (read+write) MSHR misses (Count)
system.victimcache.demandMshrMisses::total         3838                       # number of demand (read+write) MSHR misses (Count)
system.victimcache.overallMshrMisses::cpu.data         3838                       # number of overall MSHR misses (Count)
system.victimcache.overallMshrMisses::total         3838                       # number of overall MSHR misses (Count)
system.victimcache.demandMshrMissLatency::cpu.data    118675000                       # number of demand (read+write) MSHR miss ticks (Tick)
system.victimcache.demandMshrMissLatency::total    118675000                       # number of demand (read+write) MSHR miss ticks (Tick)
system.victimcache.overallMshrMissLatency::cpu.data    118675000                       # number of overall MSHR miss ticks (Tick)
system.victimcache.overallMshrMissLatency::total    118675000                       # number of overall MSHR miss ticks (Tick)
system.victimcache.demandMshrMissRate::cpu.data     0.051889                       # mshr miss ratio for demand accesses (Ratio)
system.victimcache.demandMshrMissRate::total     0.051889                       # mshr miss ratio for demand accesses (Ratio)
system.victimcache.overallMshrMissRate::cpu.data     0.051889                       # mshr miss ratio for overall accesses (Ratio)
system.victimcache.overallMshrMissRate::total     0.051889                       # mshr miss ratio for overall accesses (Ratio)
system.victimcache.demandAvgMshrMissLatency::cpu.data 30921.052632                       # average overall mshr miss latency ((Cycle/Count))
system.victimcache.demandAvgMshrMissLatency::total 30921.052632                       # average overall mshr miss latency ((Cycle/Count))
system.victimcache.overallAvgMshrMissLatency::cpu.data 30921.052632                       # average overall mshr miss latency ((Cycle/Count))
system.victimcache.overallAvgMshrMissLatency::total 30921.052632                       # average overall mshr miss latency ((Cycle/Count))
system.victimcache.replacements                  3570                       # number of replacements (Count)
system.victimcache.ReadExReq.hits::cpu.data        70128                       # number of ReadExReq hits (Count)
system.victimcache.ReadExReq.hits::total        70128                       # number of ReadExReq hits (Count)
system.victimcache.ReadExReq.misses::cpu.data         3715                       # number of ReadExReq misses (Count)
system.victimcache.ReadExReq.misses::total         3715                       # number of ReadExReq misses (Count)
system.victimcache.ReadExReq.missLatency::cpu.data    105339000                       # number of ReadExReq miss ticks (Tick)
system.victimcache.ReadExReq.missLatency::total    105339000                       # number of ReadExReq miss ticks (Tick)
system.victimcache.ReadExReq.accesses::cpu.data        73843                       # number of ReadExReq accesses(hits+misses) (Count)
system.victimcache.ReadExReq.accesses::total        73843                       # number of ReadExReq accesses(hits+misses) (Count)
system.victimcache.ReadExReq.missRate::cpu.data     0.050309                       # miss rate for ReadExReq accesses (Ratio)
system.victimcache.ReadExReq.missRate::total     0.050309                       # miss rate for ReadExReq accesses (Ratio)
system.victimcache.ReadExReq.avgMissLatency::cpu.data 28355.047106                       # average ReadExReq miss latency ((Tick/Count))
system.victimcache.ReadExReq.avgMissLatency::total 28355.047106                       # average ReadExReq miss latency ((Tick/Count))
system.victimcache.ReadExReq.mshrMisses::cpu.data         3715                       # number of ReadExReq MSHR misses (Count)
system.victimcache.ReadExReq.mshrMisses::total         3715                       # number of ReadExReq MSHR misses (Count)
system.victimcache.ReadExReq.mshrMissLatency::cpu.data    105339000                       # number of ReadExReq MSHR miss ticks (Tick)
system.victimcache.ReadExReq.mshrMissLatency::total    105339000                       # number of ReadExReq MSHR miss ticks (Tick)
system.victimcache.ReadExReq.mshrMissRate::cpu.data     0.050309                       # mshr miss rate for ReadExReq accesses (Ratio)
system.victimcache.ReadExReq.mshrMissRate::total     0.050309                       # mshr miss rate for ReadExReq accesses (Ratio)
system.victimcache.ReadExReq.avgMshrMissLatency::cpu.data 28355.047106                       # average ReadExReq mshr miss latency ((Tick/Count))
system.victimcache.ReadExReq.avgMshrMissLatency::total 28355.047106                       # average ReadExReq mshr miss latency ((Tick/Count))
system.victimcache.ReadSharedReq.misses::cpu.data          123                       # number of ReadSharedReq misses (Count)
system.victimcache.ReadSharedReq.misses::total          123                       # number of ReadSharedReq misses (Count)
system.victimcache.ReadSharedReq.missLatency::cpu.data     13336000                       # number of ReadSharedReq miss ticks (Tick)
system.victimcache.ReadSharedReq.missLatency::total     13336000                       # number of ReadSharedReq miss ticks (Tick)
system.victimcache.ReadSharedReq.accesses::cpu.data          123                       # number of ReadSharedReq accesses(hits+misses) (Count)
system.victimcache.ReadSharedReq.accesses::total          123                       # number of ReadSharedReq accesses(hits+misses) (Count)
system.victimcache.ReadSharedReq.missRate::cpu.data            1                       # miss rate for ReadSharedReq accesses (Ratio)
system.victimcache.ReadSharedReq.missRate::total            1                       # miss rate for ReadSharedReq accesses (Ratio)
system.victimcache.ReadSharedReq.avgMissLatency::cpu.data 108422.764228                       # average ReadSharedReq miss latency ((Tick/Count))
system.victimcache.ReadSharedReq.avgMissLatency::total 108422.764228                       # average ReadSharedReq miss latency ((Tick/Count))
system.victimcache.ReadSharedReq.mshrMisses::cpu.data          123                       # number of ReadSharedReq MSHR misses (Count)
system.victimcache.ReadSharedReq.mshrMisses::total          123                       # number of ReadSharedReq MSHR misses (Count)
system.victimcache.ReadSharedReq.mshrMissLatency::cpu.data     13336000                       # number of ReadSharedReq MSHR miss ticks (Tick)
system.victimcache.ReadSharedReq.mshrMissLatency::total     13336000                       # number of ReadSharedReq MSHR miss ticks (Tick)
system.victimcache.ReadSharedReq.mshrMissRate::cpu.data            1                       # mshr miss rate for ReadSharedReq accesses (Ratio)
system.victimcache.ReadSharedReq.mshrMissRate::total            1                       # mshr miss rate for ReadSharedReq accesses (Ratio)
system.victimcache.ReadSharedReq.avgMshrMissLatency::cpu.data 108422.764228                       # average ReadSharedReq mshr miss latency ((Tick/Count))
system.victimcache.ReadSharedReq.avgMshrMissLatency::total 108422.764228                       # average ReadSharedReq mshr miss latency ((Tick/Count))
system.victimcache.UpgradeReq.misses::cpu.data           30                       # number of UpgradeReq misses (Count)
system.victimcache.UpgradeReq.misses::total           30                       # number of UpgradeReq misses (Count)
system.victimcache.UpgradeReq.accesses::cpu.data           30                       # number of UpgradeReq accesses(hits+misses) (Count)
system.victimcache.UpgradeReq.accesses::total           30                       # number of UpgradeReq accesses(hits+misses) (Count)
system.victimcache.UpgradeReq.missRate::cpu.data            1                       # miss rate for UpgradeReq accesses (Ratio)
system.victimcache.UpgradeReq.missRate::total            1                       # miss rate for UpgradeReq accesses (Ratio)
system.victimcache.UpgradeReq.mshrMisses::cpu.data           30                       # number of UpgradeReq MSHR misses (Count)
system.victimcache.UpgradeReq.mshrMisses::total           30                       # number of UpgradeReq MSHR misses (Count)
system.victimcache.UpgradeReq.mshrMissLatency::cpu.data      1588000                       # number of UpgradeReq MSHR miss ticks (Tick)
system.victimcache.UpgradeReq.mshrMissLatency::total      1588000                       # number of UpgradeReq MSHR miss ticks (Tick)
system.victimcache.UpgradeReq.mshrMissRate::cpu.data            1                       # mshr miss rate for UpgradeReq accesses (Ratio)
system.victimcache.UpgradeReq.mshrMissRate::total            1                       # mshr miss rate for UpgradeReq accesses (Ratio)
system.victimcache.UpgradeReq.avgMshrMissLatency::cpu.data 52933.333333                       # average UpgradeReq mshr miss latency ((Tick/Count))
system.victimcache.UpgradeReq.avgMshrMissLatency::total 52933.333333                       # average UpgradeReq mshr miss latency ((Tick/Count))
system.victimcache.WritebackDirty.hits::writebacks        73714                       # number of WritebackDirty hits (Count)
system.victimcache.WritebackDirty.hits::total        73714                       # number of WritebackDirty hits (Count)
system.victimcache.WritebackDirty.accesses::writebacks        73714                       # number of WritebackDirty accesses(hits+misses) (Count)
system.victimcache.WritebackDirty.accesses::total        73714                       # number of WritebackDirty accesses(hits+misses) (Count)
system.victimcache.power_state.pwrStateResidencyTicks::UNDEFINED    513449000                       # Cumulative time (in ticks) in various power states (Tick)
system.victimcache.tags.tagsInUse           14.043716                       # Average ticks per tags in use ((Tick/Count))
system.victimcache.tags.totalRefs              143842                       # Total number of references to valid blocks. (Count)
system.victimcache.tags.sampledRefs             73714                       # Sample count of references to valid blocks. (Count)
system.victimcache.tags.avgRefs              1.951353                       # Average number of references to valid blocks. ((Count/Count))
system.victimcache.tags.warmupTick           48296000                       # The tick when the warmup percentage was hit. (Tick)
system.victimcache.tags.occupancies::writebacks    14.043716                       # Average occupied blocks per tick, per requestor ((Count/Tick))
system.victimcache.tags.avgOccs::writebacks     0.877732                       # Average percentage of cache occupancy ((Ratio/Tick))
system.victimcache.tags.avgOccs::total       0.877732                       # Average percentage of cache occupancy ((Ratio/Tick))
system.victimcache.tags.occupanciesTaskId::1024           16                       # Occupied blocks per task id (Count)
system.victimcache.tags.ageTaskId_1024::0           16                       # Occupied blocks per task id, per block age (Count)
system.victimcache.tags.ratioOccsTaskId::1024            1                       # Ratio of occupied blocks and all blocks, per task id (Ratio)
system.victimcache.tags.tagAccesses           2437074                       # Number of tag accesses (Count)
system.victimcache.tags.dataAccesses          2437074                       # Number of data accesses (Count)
system.victimcache.tags.power_state.pwrStateResidencyTicks::UNDEFINED    513449000                       # Cumulative time (in ticks) in various power states (Tick)
system.workload.inst.arm                            0                       # number of arm instructions executed (Count)
system.workload.inst.quiesce                        0                       # number of quiesce instructions executed (Count)

---------- End Simulation Statistics   ----------
