
---------- Begin Simulation Statistics ----------
simSeconds                                   0.056541                       # Number of seconds simulated (Second)
simTicks                                  56540881000                       # Number of ticks simulated (Tick)
finalTick                                 56540881000                       # Number of ticks from beginning of simulation (restored from checkpoints and never reset) (Tick)
simFreq                                  1000000000000                       # The number of ticks per simulated second ((Tick/Second))
hostSeconds                                    286.69                       # Real time elapsed on the host (Second)
hostTickRate                                197220072                       # The number of ticks simulated per host second (ticks/s) ((Tick/Second))
hostMemory                                     702076                       # Number of bytes of host memory used (Byte)
simInsts                                     48413712                       # Number of instructions simulated (Count)
simOps                                       86500844                       # Number of ops (including micro ops) simulated (Count)
hostInstRate                                   168872                       # Simulator instruction rate (inst/s) ((Count/Second))
hostOpRate                                     301723                       # Simulator op (including micro ops) rate (op/s) ((Count/Second))
system.clk_domain.clock                          1000                       # Clock period in ticks (Tick)
system.clk_domain.voltage_domain.voltage            1                       # Voltage in Volts (Volt)
system.cpu.numCycles                         56540882                       # Number of cpu cycles simulated (Cycle)
system.cpu.numWorkItemsStarted                      0                       # Number of work items this cpu started (Count)
system.cpu.numWorkItemsCompleted                    0                       # Number of work items this cpu completed (Count)
system.cpu.instsAdded                        97791191                       # Number of instructions added to the IQ (excludes non-spec) (Count)
system.cpu.nonSpecInstsAdded                   917805                       # Number of non-speculative instructions added to the IQ (Count)
system.cpu.instsIssued                       95039576                       # Number of instructions issued (Count)
system.cpu.squashedInstsIssued                   8961                       # Number of squashed instructions issued (Count)
system.cpu.squashedInstsExamined             12208146                       # Number of squashed instructions iterated over during squash; mainly for profiling (Count)
system.cpu.squashedOperandsExamined          14463733                       # Number of squashed operands that are examined and possibly removed from graph (Count)
system.cpu.squashedNonSpecRemoved                 139                       # Number of squashed non-spec instructions that were removed (Count)
system.cpu.numIssuedDist::samples            56439043                       # Number of insts issued each cycle (Count)
system.cpu.numIssuedDist::mean               1.683933                       # Number of insts issued each cycle (Count)
system.cpu.numIssuedDist::stdev              2.035353                       # Number of insts issued each cycle (Count)
system.cpu.numIssuedDist::underflows                0      0.00%      0.00% # Number of insts issued each cycle (Count)
system.cpu.numIssuedDist::0                  24887373     44.10%     44.10% # Number of insts issued each cycle (Count)
system.cpu.numIssuedDist::1                   9542754     16.91%     61.00% # Number of insts issued each cycle (Count)
system.cpu.numIssuedDist::2                   5482225      9.71%     70.72% # Number of insts issued each cycle (Count)
system.cpu.numIssuedDist::3                   4777083      8.46%     79.18% # Number of insts issued each cycle (Count)
system.cpu.numIssuedDist::4                   3366324      5.96%     85.15% # Number of insts issued each cycle (Count)
system.cpu.numIssuedDist::5                   4811034      8.52%     93.67% # Number of insts issued each cycle (Count)
system.cpu.numIssuedDist::6                   2540972      4.50%     98.17% # Number of insts issued each cycle (Count)
system.cpu.numIssuedDist::7                    815399      1.44%     99.62% # Number of insts issued each cycle (Count)
system.cpu.numIssuedDist::8                    215879      0.38%    100.00% # Number of insts issued each cycle (Count)
system.cpu.numIssuedDist::overflows                 0      0.00%    100.00% # Number of insts issued each cycle (Count)
system.cpu.numIssuedDist::min_value                 0                       # Number of insts issued each cycle (Count)
system.cpu.numIssuedDist::max_value                 8                       # Number of insts issued each cycle (Count)
system.cpu.numIssuedDist::total              56439043                       # Number of insts issued each cycle (Count)
system.cpu.statFuBusy::No_OpClass                   0      0.00%      0.00% # attempts to use FU when none available (Count)
system.cpu.statFuBusy::IntAlu                   81974     25.19%     25.19% # attempts to use FU when none available (Count)
system.cpu.statFuBusy::IntMult                      0      0.00%     25.19% # attempts to use FU when none available (Count)
system.cpu.statFuBusy::IntDiv                       0      0.00%     25.19% # attempts to use FU when none available (Count)
system.cpu.statFuBusy::FloatAdd                     0      0.00%     25.19% # attempts to use FU when none available (Count)
system.cpu.statFuBusy::FloatCmp                     0      0.00%     25.19% # attempts to use FU when none available (Count)
system.cpu.statFuBusy::FloatCvt                     0      0.00%     25.19% # attempts to use FU when none available (Count)
system.cpu.statFuBusy::FloatMult                    0      0.00%     25.19% # attempts to use FU when none available (Count)
system.cpu.statFuBusy::FloatMultAcc                 0      0.00%     25.19% # attempts to use FU when none available (Count)
system.cpu.statFuBusy::FloatDiv                     0      0.00%     25.19% # attempts to use FU when none available (Count)
system.cpu.statFuBusy::FloatMisc                    0      0.00%     25.19% # attempts to use FU when none available (Count)
system.cpu.statFuBusy::FloatSqrt                    0      0.00%     25.19% # attempts to use FU when none available (Count)
system.cpu.statFuBusy::SimdAdd                      4      0.00%     25.19% # attempts to use FU when none available (Count)
system.cpu.statFuBusy::SimdAddAcc                   0      0.00%     25.19% # attempts to use FU when none available (Count)
system.cpu.statFuBusy::SimdAlu                     40      0.01%     25.20% # attempts to use FU when none available (Count)
system.cpu.statFuBusy::SimdCmp                      0      0.00%     25.20% # attempts to use FU when none available (Count)
system.cpu.statFuBusy::SimdCvt                   1013      0.31%     25.51% # attempts to use FU when none available (Count)
system.cpu.statFuBusy::SimdMisc                    12      0.00%     25.51% # attempts to use FU when none available (Count)
system.cpu.statFuBusy::SimdMult                     0      0.00%     25.51% # attempts to use FU when none available (Count)
system.cpu.statFuBusy::SimdMultAcc                  0      0.00%     25.51% # attempts to use FU when none available (Count)
system.cpu.statFuBusy::SimdShift                   12      0.00%     25.52% # attempts to use FU when none available (Count)
system.cpu.statFuBusy::SimdShiftAcc                 0      0.00%     25.52% # attempts to use FU when none available (Count)
system.cpu.statFuBusy::SimdDiv                      0      0.00%     25.52% # attempts to use FU when none available (Count)
system.cpu.statFuBusy::SimdSqrt                     0      0.00%     25.52% # attempts to use FU when none available (Count)
system.cpu.statFuBusy::SimdFloatAdd                 0      0.00%     25.52% # attempts to use FU when none available (Count)
system.cpu.statFuBusy::SimdFloatAlu                 0      0.00%     25.52% # attempts to use FU when none available (Count)
system.cpu.statFuBusy::SimdFloatCmp                 0      0.00%     25.52% # attempts to use FU when none available (Count)
system.cpu.statFuBusy::SimdFloatCvt                 0      0.00%     25.52% # attempts to use FU when none available (Count)
system.cpu.statFuBusy::SimdFloatDiv                 0      0.00%     25.52% # attempts to use FU when none available (Count)
system.cpu.statFuBusy::SimdFloatMisc                0      0.00%     25.52% # attempts to use FU when none available (Count)
system.cpu.statFuBusy::SimdFloatMult                0      0.00%     25.52% # attempts to use FU when none available (Count)
system.cpu.statFuBusy::SimdFloatMultAcc             0      0.00%     25.52% # attempts to use FU when none available (Count)
system.cpu.statFuBusy::SimdFloatSqrt                0      0.00%     25.52% # attempts to use FU when none available (Count)
system.cpu.statFuBusy::SimdReduceAdd                0      0.00%     25.52% # attempts to use FU when none available (Count)
system.cpu.statFuBusy::SimdReduceAlu                0      0.00%     25.52% # attempts to use FU when none available (Count)
system.cpu.statFuBusy::SimdReduceCmp                0      0.00%     25.52% # attempts to use FU when none available (Count)
system.cpu.statFuBusy::SimdFloatReduceAdd            0      0.00%     25.52% # attempts to use FU when none available (Count)
system.cpu.statFuBusy::SimdFloatReduceCmp            0      0.00%     25.52% # attempts to use FU when none available (Count)
system.cpu.statFuBusy::SimdAes                      0      0.00%     25.52% # attempts to use FU when none available (Count)
system.cpu.statFuBusy::SimdAesMix                   0      0.00%     25.52% # attempts to use FU when none available (Count)
system.cpu.statFuBusy::SimdSha1Hash                 0      0.00%     25.52% # attempts to use FU when none available (Count)
system.cpu.statFuBusy::SimdSha1Hash2                0      0.00%     25.52% # attempts to use FU when none available (Count)
system.cpu.statFuBusy::SimdSha256Hash               0      0.00%     25.52% # attempts to use FU when none available (Count)
system.cpu.statFuBusy::SimdSha256Hash2              0      0.00%     25.52% # attempts to use FU when none available (Count)
system.cpu.statFuBusy::SimdShaSigma2                0      0.00%     25.52% # attempts to use FU when none available (Count)
system.cpu.statFuBusy::SimdShaSigma3                0      0.00%     25.52% # attempts to use FU when none available (Count)
system.cpu.statFuBusy::SimdPredAlu                  0      0.00%     25.52% # attempts to use FU when none available (Count)
system.cpu.statFuBusy::MemRead                 169610     52.11%     77.63% # attempts to use FU when none available (Count)
system.cpu.statFuBusy::MemWrite                 72411     22.25%     99.88% # attempts to use FU when none available (Count)
system.cpu.statFuBusy::FloatMemRead               159      0.05%     99.93% # attempts to use FU when none available (Count)
system.cpu.statFuBusy::FloatMemWrite              236      0.07%    100.00% # attempts to use FU when none available (Count)
system.cpu.statFuBusy::IprAccess                    0      0.00%    100.00% # attempts to use FU when none available (Count)
system.cpu.statFuBusy::InstPrefetch                 0      0.00%    100.00% # attempts to use FU when none available (Count)
system.cpu.statIssuedInstType_0::No_OpClass      1595192      1.68%      1.68% # Number of instructions issued per FU type, per thread (Count)
system.cpu.statIssuedInstType_0::IntAlu      55138534     58.02%     59.69% # Number of instructions issued per FU type, per thread (Count)
system.cpu.statIssuedInstType_0::IntMult         1934      0.00%     59.70% # Number of instructions issued per FU type, per thread (Count)
system.cpu.statIssuedInstType_0::IntDiv         37408      0.04%     59.74% # Number of instructions issued per FU type, per thread (Count)
system.cpu.statIssuedInstType_0::FloatAdd      2104465      2.21%     61.95% # Number of instructions issued per FU type, per thread (Count)
system.cpu.statIssuedInstType_0::FloatCmp            0      0.00%     61.95% # Number of instructions issued per FU type, per thread (Count)
system.cpu.statIssuedInstType_0::FloatCvt       262432      0.28%     62.23% # Number of instructions issued per FU type, per thread (Count)
system.cpu.statIssuedInstType_0::FloatMult       262144      0.28%     62.50% # Number of instructions issued per FU type, per thread (Count)
system.cpu.statIssuedInstType_0::FloatMultAcc            0      0.00%     62.50% # Number of instructions issued per FU type, per thread (Count)
system.cpu.statIssuedInstType_0::FloatDiv            0      0.00%     62.50% # Number of instructions issued per FU type, per thread (Count)
system.cpu.statIssuedInstType_0::FloatMisc            0      0.00%     62.50% # Number of instructions issued per FU type, per thread (Count)
system.cpu.statIssuedInstType_0::FloatSqrt            0      0.00%     62.50% # Number of instructions issued per FU type, per thread (Count)
system.cpu.statIssuedInstType_0::SimdAdd         7049      0.01%     62.51% # Number of instructions issued per FU type, per thread (Count)
system.cpu.statIssuedInstType_0::SimdAddAcc            0      0.00%     62.51% # Number of instructions issued per FU type, per thread (Count)
system.cpu.statIssuedInstType_0::SimdAlu       275541      0.29%     62.80% # Number of instructions issued per FU type, per thread (Count)
system.cpu.statIssuedInstType_0::SimdCmp            0      0.00%     62.80% # Number of instructions issued per FU type, per thread (Count)
system.cpu.statIssuedInstType_0::SimdCvt        14916      0.02%     62.82% # Number of instructions issued per FU type, per thread (Count)
system.cpu.statIssuedInstType_0::SimdMisc       406506      0.43%     63.24% # Number of instructions issued per FU type, per thread (Count)
system.cpu.statIssuedInstType_0::SimdMult            0      0.00%     63.24% # Number of instructions issued per FU type, per thread (Count)
system.cpu.statIssuedInstType_0::SimdMultAcc            0      0.00%     63.24% # Number of instructions issued per FU type, per thread (Count)
system.cpu.statIssuedInstType_0::SimdShift         1056      0.00%     63.24% # Number of instructions issued per FU type, per thread (Count)
system.cpu.statIssuedInstType_0::SimdShiftAcc            0      0.00%     63.24% # Number of instructions issued per FU type, per thread (Count)
system.cpu.statIssuedInstType_0::SimdDiv            0      0.00%     63.24% # Number of instructions issued per FU type, per thread (Count)
system.cpu.statIssuedInstType_0::SimdSqrt            0      0.00%     63.24% # Number of instructions issued per FU type, per thread (Count)
system.cpu.statIssuedInstType_0::SimdFloatAdd       655368      0.69%     63.93% # Number of instructions issued per FU type, per thread (Count)
system.cpu.statIssuedInstType_0::SimdFloatAlu            0      0.00%     63.93% # Number of instructions issued per FU type, per thread (Count)
system.cpu.statIssuedInstType_0::SimdFloatCmp            0      0.00%     63.93% # Number of instructions issued per FU type, per thread (Count)
system.cpu.statIssuedInstType_0::SimdFloatCvt       393277      0.41%     64.35% # Number of instructions issued per FU type, per thread (Count)
system.cpu.statIssuedInstType_0::SimdFloatDiv       131078      0.14%     64.49% # Number of instructions issued per FU type, per thread (Count)
system.cpu.statIssuedInstType_0::SimdFloatMisc            0      0.00%     64.49% # Number of instructions issued per FU type, per thread (Count)
system.cpu.statIssuedInstType_0::SimdFloatMult       458757      0.48%     64.97% # Number of instructions issued per FU type, per thread (Count)
system.cpu.statIssuedInstType_0::SimdFloatMultAcc            0      0.00%     64.97% # Number of instructions issued per FU type, per thread (Count)
system.cpu.statIssuedInstType_0::SimdFloatSqrt            0      0.00%     64.97% # Number of instructions issued per FU type, per thread (Count)
system.cpu.statIssuedInstType_0::SimdReduceAdd            0      0.00%     64.97% # Number of instructions issued per FU type, per thread (Count)
system.cpu.statIssuedInstType_0::SimdReduceAlu            0      0.00%     64.97% # Number of instructions issued per FU type, per thread (Count)
system.cpu.statIssuedInstType_0::SimdReduceCmp            0      0.00%     64.97% # Number of instructions issued per FU type, per thread (Count)
system.cpu.statIssuedInstType_0::SimdFloatReduceAdd            0      0.00%     64.97% # Number of instructions issued per FU type, per thread (Count)
system.cpu.statIssuedInstType_0::SimdFloatReduceCmp            0      0.00%     64.97% # Number of instructions issued per FU type, per thread (Count)
system.cpu.statIssuedInstType_0::SimdAes            0      0.00%     64.97% # Number of instructions issued per FU type, per thread (Count)
system.cpu.statIssuedInstType_0::SimdAesMix            0      0.00%     64.97% # Number of instructions issued per FU type, per thread (Count)
system.cpu.statIssuedInstType_0::SimdSha1Hash            0      0.00%     64.97% # Number of instructions issued per FU type, per thread (Count)
system.cpu.statIssuedInstType_0::SimdSha1Hash2            0      0.00%     64.97% # Number of instructions issued per FU type, per thread (Count)
system.cpu.statIssuedInstType_0::SimdSha256Hash            0      0.00%     64.97% # Number of instructions issued per FU type, per thread (Count)
system.cpu.statIssuedInstType_0::SimdSha256Hash2            0      0.00%     64.97% # Number of instructions issued per FU type, per thread (Count)
system.cpu.statIssuedInstType_0::SimdShaSigma2            0      0.00%     64.97% # Number of instructions issued per FU type, per thread (Count)
system.cpu.statIssuedInstType_0::SimdShaSigma3            0      0.00%     64.97% # Number of instructions issued per FU type, per thread (Count)
system.cpu.statIssuedInstType_0::SimdPredAlu            0      0.00%     64.97% # Number of instructions issued per FU type, per thread (Count)
system.cpu.statIssuedInstType_0::MemRead     19407755     20.42%     85.39% # Number of instructions issued per FU type, per thread (Count)
system.cpu.statIssuedInstType_0::MemWrite      9725641     10.23%     95.62% # Number of instructions issued per FU type, per thread (Count)
system.cpu.statIssuedInstType_0::FloatMemRead      2706219      2.85%     98.47% # Number of instructions issued per FU type, per thread (Count)
system.cpu.statIssuedInstType_0::FloatMemWrite      1454304      1.53%    100.00% # Number of instructions issued per FU type, per thread (Count)
system.cpu.statIssuedInstType_0::IprAccess            0      0.00%    100.00% # Number of instructions issued per FU type, per thread (Count)
system.cpu.statIssuedInstType_0::InstPrefetch            0      0.00%    100.00% # Number of instructions issued per FU type, per thread (Count)
system.cpu.statIssuedInstType_0::total       95039576                       # Number of instructions issued per FU type, per thread (Count)
system.cpu.issueRate                         1.680900                       # Inst issue rate ((Count/Cycle))
system.cpu.fuBusy                              325471                       # FU busy when requested (Count)
system.cpu.fuBusyRate                        0.003425                       # FU busy rate (busy events/executed inst) ((Count/Count))
system.cpu.intInstQueueReads                226218726                       # Number of integer instruction queue reads (Count)
system.cpu.intInstQueueWrites               100561454                       # Number of integer instruction queue writes (Count)
system.cpu.intInstQueueWakeupAccesses        84054448                       # Number of integer instruction queue wakeup accesses (Count)
system.cpu.fpInstQueueReads                  20633901                       # Number of floating instruction queue reads (Count)
system.cpu.fpInstQueueWrites                 10358699                       # Number of floating instruction queue writes (Count)
system.cpu.fpInstQueueWakeupAccesses         10313046                       # Number of floating instruction queue wakeup accesses (Count)
system.cpu.vecInstQueueReads                        0                       # Number of vector instruction queue reads (Count)
system.cpu.vecInstQueueWrites                       0                       # Number of vector instruction queue writes (Count)
system.cpu.vecInstQueueWakeupAccesses               0                       # Number of vector instruction queue wakeup accesses (Count)
system.cpu.intAluAccesses                    83452227                       # Number of integer alu accesses (Count)
system.cpu.fpAluAccesses                     10317628                       # Number of floating point alu accesses (Count)
system.cpu.vecAluAccesses                           0                       # Number of vector alu accesses (Count)
system.cpu.idleCycles                               0                       # Number of cycles IEW is idle (Cycle)
system.cpu.squashCycles                        149892                       # Number of cycles IEW is squashing (Cycle)
system.cpu.blockCycles                        1907457                       # Number of cycles IEW is blocking (Cycle)
system.cpu.unblockCycles                        26610                       # Number of cycles IEW is unblocking (Cycle)
system.cpu.dispatchedInsts                   98708996                       # Number of instructions dispatched to IQ (Count)
system.cpu.dispSquashedInsts                      549                       # Number of squashed instructions skipped by dispatch (Count)
system.cpu.dispLoadInsts                     22851228                       # Number of dispatched load instructions (Count)
system.cpu.dispStoreInsts                    11539856                       # Number of dispatched store instructions (Count)
system.cpu.dispNonSpecInsts                    917803                       # Number of dispatched non-speculative instructions (Count)
system.cpu.iqFullEvents                         10087                       # Number of times the IQ has become full, causing a stall (Count)
system.cpu.lsqFullEvents                        12433                       # Number of times the LSQ has become full, causing a stall (Count)
system.cpu.memOrderViolationEvents               3104                       # Number of memory order violations (Count)
system.cpu.predictedTakenIncorrect              72660                       # Number of branches that were predicted taken incorrectly (Count)
system.cpu.predictedNotTakenIncorrect           76026                       # Number of branches that were predicted not taken incorrectly (Count)
system.cpu.branchMispredicts                   148686                       # Number of branch mispredicts detected at execute (Count)
system.cpu.numInsts                          94601284                       # Number of executed instructions (Count)
system.cpu.numLoadInsts                      22015614                       # Number of load instructions executed (Count)
system.cpu.numSquashedInsts                    438292                       # Number of squashed instructions skipped in execute (Count)
system.cpu.numSwp                                   0                       # Number of swp insts executed (Count)
system.cpu.numNop                                   0                       # Number of nop insts executed (Count)
system.cpu.numRefs                           33058153                       # Number of memory reference insts executed (Count)
system.cpu.numBranches                        7111141                       # Number of branches executed (Count)
system.cpu.numStoreInsts                     11042539                       # Number of stores executed (Count)
system.cpu.numRate                           1.673148                       # Inst execution rate ((Count/Cycle))
system.cpu.instsToCommit                     94491465                       # Cumulative count of insts sent to commit (Count)
system.cpu.writebackCount                    94367494                       # Cumulative count of insts written-back (Count)
system.cpu.producerInst                      67990999                       # Number of instructions producing a value (Count)
system.cpu.consumerInst                     110547212                       # Number of instructions consuming a value (Count)
system.cpu.wbRate                            1.669013                       # Insts written-back per cycle ((Count/Cycle))
system.cpu.wbFanout                          0.615040                       # Average fanout of values written-back ((Count/Count))
system.cpu.timesIdled                            1547                       # Number of times that the entire CPU went into an idle state and unscheduled itself (Count)
system.cpu.idleCycles                          101839                       # Total number of cycles that the CPU has spent unscheduled due to idling (Cycle)
system.cpu.committedInsts                    48413712                       # Number of Instructions Simulated (Count)
system.cpu.committedOps                      86500844                       # Number of Ops (including micro ops) Simulated (Count)
system.cpu.cpi                               1.167869                       # CPI: Cycles Per Instruction ((Cycle/Count))
system.cpu.totalCpi                          1.167869                       # CPI: Total CPI of All Threads ((Cycle/Count))
system.cpu.ipc                               0.856260                       # IPC: Instructions Per Cycle ((Count/Cycle))
system.cpu.totalIpc                          0.856260                       # IPC: Total IPC of All Threads ((Count/Cycle))
system.cpu.intRegfileReads                  147740840                       # Number of integer regfile reads (Count)
system.cpu.intRegfileWrites                  65825851                       # Number of integer regfile writes (Count)
system.cpu.fpRegfileReads                    10154411                       # Number of floating regfile reads (Count)
system.cpu.fpRegfileWrites                    8327698                       # Number of floating regfile writes (Count)
system.cpu.ccRegfileReads                    19823847                       # number of cc regfile reads (Count)
system.cpu.ccRegfileWrites                   20167756                       # number of cc regfile writes (Count)
system.cpu.miscRegfileReads                  48468165                       # number of misc regfile reads (Count)
system.cpu.miscRegfileWrites                  1835170                       # number of misc regfile writes (Count)
system.cpu.MemDepUnit__0.insertedLoads       22851228                       # Number of loads inserted to the mem dependence unit. (Count)
system.cpu.MemDepUnit__0.insertedStores      11539856                       # Number of stores inserted to the mem dependence unit. (Count)
system.cpu.MemDepUnit__0.conflictingLoads      9788856                       # Number of conflicting loads. (Count)
system.cpu.MemDepUnit__0.conflictingStores      2194870                       # Number of conflicting stores. (Count)
system.cpu.MemDepUnit__1.insertedLoads              0                       # Number of loads inserted to the mem dependence unit. (Count)
system.cpu.MemDepUnit__1.insertedStores             0                       # Number of stores inserted to the mem dependence unit. (Count)
system.cpu.MemDepUnit__1.conflictingLoads            0                       # Number of conflicting loads. (Count)
system.cpu.MemDepUnit__1.conflictingStores            0                       # Number of conflicting stores. (Count)
system.cpu.MemDepUnit__2.insertedLoads              0                       # Number of loads inserted to the mem dependence unit. (Count)
system.cpu.MemDepUnit__2.insertedStores             0                       # Number of stores inserted to the mem dependence unit. (Count)
system.cpu.MemDepUnit__2.conflictingLoads            0                       # Number of conflicting loads. (Count)
system.cpu.MemDepUnit__2.conflictingStores            0                       # Number of conflicting stores. (Count)
system.cpu.MemDepUnit__3.insertedLoads              0                       # Number of loads inserted to the mem dependence unit. (Count)
system.cpu.MemDepUnit__3.insertedStores             0                       # Number of stores inserted to the mem dependence unit. (Count)
system.cpu.MemDepUnit__3.conflictingLoads            0                       # Number of conflicting loads. (Count)
system.cpu.MemDepUnit__3.conflictingStores            0                       # Number of conflicting stores. (Count)
system.cpu.branchPred.lookups                 7659389                       # Number of BP lookups (Count)
system.cpu.branchPred.condPredicted           2835743                       # Number of conditional branches predicted (Count)
system.cpu.branchPred.condIncorrect            146496                       # Number of conditional branches incorrect (Count)
system.cpu.branchPred.BTBLookups              4340399                       # Number of BTB lookups (Count)
system.cpu.branchPred.BTBHits                 4337663                       # Number of BTB hits (Count)
system.cpu.branchPred.BTBHitRatio            0.999370                       # BTB Hit Ratio (Ratio)
system.cpu.branchPred.RASUsed                 1592454                       # Number of times the RAS was used to get a target. (Count)
system.cpu.branchPred.RASIncorrect                  9                       # Number of incorrect RAS predictions. (Count)
system.cpu.branchPred.indirectLookups            6171                       # Number of indirect predictor lookups. (Count)
system.cpu.branchPred.indirectHits               4027                       # Number of indirect target hits. (Count)
system.cpu.branchPred.indirectMisses             2144                       # Number of indirect misses. (Count)
system.cpu.branchPred.indirectMispredicted          623                       # Number of mispredicted indirect branches. (Count)
system.cpu.commit.commitSquashedInsts        12204488                       # The number of squashed insts skipped by commit (Count)
system.cpu.commit.commitNonSpecStalls          917666                       # The number of times commit has been forced to stall to communicate backwards (Count)
system.cpu.commit.branchMispredicts            146519                       # The number of times a branch was mispredicted (Count)
system.cpu.commit.numCommittedDist::samples     54847281                       # Number of insts commited each cycle (Count)
system.cpu.commit.numCommittedDist::mean     1.577122                       # Number of insts commited each cycle (Count)
system.cpu.commit.numCommittedDist::stdev     2.393238                       # Number of insts commited each cycle (Count)
system.cpu.commit.numCommittedDist::underflows            0      0.00%      0.00% # Number of insts commited each cycle (Count)
system.cpu.commit.numCommittedDist::0        26658936     48.61%     48.61% # Number of insts commited each cycle (Count)
system.cpu.commit.numCommittedDist::1        11988511     21.86%     70.46% # Number of insts commited each cycle (Count)
system.cpu.commit.numCommittedDist::2         4424441      8.07%     78.53% # Number of insts commited each cycle (Count)
system.cpu.commit.numCommittedDist::3         3718543      6.78%     85.31% # Number of insts commited each cycle (Count)
system.cpu.commit.numCommittedDist::4         1018240      1.86%     87.17% # Number of insts commited each cycle (Count)
system.cpu.commit.numCommittedDist::5         1295198      2.36%     89.53% # Number of insts commited each cycle (Count)
system.cpu.commit.numCommittedDist::6          494077      0.90%     90.43% # Number of insts commited each cycle (Count)
system.cpu.commit.numCommittedDist::7         1000270      1.82%     92.25% # Number of insts commited each cycle (Count)
system.cpu.commit.numCommittedDist::8         4249065      7.75%    100.00% # Number of insts commited each cycle (Count)
system.cpu.commit.numCommittedDist::overflows            0      0.00%    100.00% # Number of insts commited each cycle (Count)
system.cpu.commit.numCommittedDist::min_value            0                       # Number of insts commited each cycle (Count)
system.cpu.commit.numCommittedDist::max_value            8                       # Number of insts commited each cycle (Count)
system.cpu.commit.numCommittedDist::total     54847281                       # Number of insts commited each cycle (Count)
system.cpu.commit.instsCommitted             48413712                       # Number of instructions committed (Count)
system.cpu.commit.opsCommitted               86500844                       # Number of ops (including micro ops) committed (Count)
system.cpu.commit.memRefs                    30064869                       # Number of memory references committed (Count)
system.cpu.commit.loads                      19316023                       # Number of loads committed (Count)
system.cpu.commit.amos                              0                       # Number of atomic instructions committed (Count)
system.cpu.commit.membars                           0                       # Number of memory barriers committed (Count)
system.cpu.commit.branches                    6508487                       # Number of branches committed (Count)
system.cpu.commit.vectorInstructions                0                       # Number of committed Vector instructions. (Count)
system.cpu.commit.floating                   10299427                       # Number of committed floating point instructions. (Count)
system.cpu.commit.integer                    79290112                       # Number of committed integer instructions. (Count)
system.cpu.commit.functionCalls               1585659                       # Number of function calls committed. (Count)
system.cpu.commit.committedInstType_0::No_OpClass      1587380      1.84%      1.84% # Class of committed instruction (Count)
system.cpu.commit.committedInstType_0::IntAlu     49848428     57.63%     59.46% # Class of committed instruction (Count)
system.cpu.commit.committedInstType_0::IntMult         1915      0.00%     59.46% # Class of committed instruction (Count)
system.cpu.commit.committedInstType_0::IntDiv        35091      0.04%     59.51% # Class of committed instruction (Count)
system.cpu.commit.committedInstType_0::FloatAdd      2102037      2.43%     61.94% # Class of committed instruction (Count)
system.cpu.commit.committedInstType_0::FloatCmp            0      0.00%     61.94% # Class of committed instruction (Count)
system.cpu.commit.committedInstType_0::FloatCvt       262432      0.30%     62.24% # Class of committed instruction (Count)
system.cpu.commit.committedInstType_0::FloatMult       262144      0.30%     62.54% # Class of committed instruction (Count)
system.cpu.commit.committedInstType_0::FloatMultAcc            0      0.00%     62.54% # Class of committed instruction (Count)
system.cpu.commit.committedInstType_0::FloatDiv            0      0.00%     62.54% # Class of committed instruction (Count)
system.cpu.commit.committedInstType_0::FloatMisc            0      0.00%     62.54% # Class of committed instruction (Count)
system.cpu.commit.committedInstType_0::FloatSqrt            0      0.00%     62.54% # Class of committed instruction (Count)
system.cpu.commit.committedInstType_0::SimdAdd         6484      0.01%     62.55% # Class of committed instruction (Count)
system.cpu.commit.committedInstType_0::SimdAddAcc            0      0.00%     62.55% # Class of committed instruction (Count)
system.cpu.commit.committedInstType_0::SimdAlu       273297      0.32%     62.87% # Class of committed instruction (Count)
system.cpu.commit.committedInstType_0::SimdCmp            0      0.00%     62.87% # Class of committed instruction (Count)
system.cpu.commit.committedInstType_0::SimdCvt        13148      0.02%     62.88% # Class of committed instruction (Count)
system.cpu.commit.committedInstType_0::SimdMisc       404764      0.47%     63.35% # Class of committed instruction (Count)
system.cpu.commit.committedInstType_0::SimdMult            0      0.00%     63.35% # Class of committed instruction (Count)
system.cpu.commit.committedInstType_0::SimdMultAcc            0      0.00%     63.35% # Class of committed instruction (Count)
system.cpu.commit.committedInstType_0::SimdShift          453      0.00%     63.35% # Class of committed instruction (Count)
system.cpu.commit.committedInstType_0::SimdShiftAcc            0      0.00%     63.35% # Class of committed instruction (Count)
system.cpu.commit.committedInstType_0::SimdDiv            0      0.00%     63.35% # Class of committed instruction (Count)
system.cpu.commit.committedInstType_0::SimdSqrt            0      0.00%     63.35% # Class of committed instruction (Count)
system.cpu.commit.committedInstType_0::SimdFloatAdd       655360      0.76%     64.11% # Class of committed instruction (Count)
system.cpu.commit.committedInstType_0::SimdFloatAlu            0      0.00%     64.11% # Class of committed instruction (Count)
system.cpu.commit.committedInstType_0::SimdFloatCmp            0      0.00%     64.11% # Class of committed instruction (Count)
system.cpu.commit.committedInstType_0::SimdFloatCvt       393218      0.45%     64.56% # Class of committed instruction (Count)
system.cpu.commit.committedInstType_0::SimdFloatDiv       131072      0.15%     64.71% # Class of committed instruction (Count)
system.cpu.commit.committedInstType_0::SimdFloatMisc            0      0.00%     64.71% # Class of committed instruction (Count)
system.cpu.commit.committedInstType_0::SimdFloatMult       458752      0.53%     65.24% # Class of committed instruction (Count)
system.cpu.commit.committedInstType_0::SimdFloatMultAcc            0      0.00%     65.24% # Class of committed instruction (Count)
system.cpu.commit.committedInstType_0::SimdFloatSqrt            0      0.00%     65.24% # Class of committed instruction (Count)
system.cpu.commit.committedInstType_0::SimdReduceAdd            0      0.00%     65.24% # Class of committed instruction (Count)
system.cpu.commit.committedInstType_0::SimdReduceAlu            0      0.00%     65.24% # Class of committed instruction (Count)
system.cpu.commit.committedInstType_0::SimdReduceCmp            0      0.00%     65.24% # Class of committed instruction (Count)
system.cpu.commit.committedInstType_0::SimdFloatReduceAdd            0      0.00%     65.24% # Class of committed instruction (Count)
system.cpu.commit.committedInstType_0::SimdFloatReduceCmp            0      0.00%     65.24% # Class of committed instruction (Count)
system.cpu.commit.committedInstType_0::SimdAes            0      0.00%     65.24% # Class of committed instruction (Count)
system.cpu.commit.committedInstType_0::SimdAesMix            0      0.00%     65.24% # Class of committed instruction (Count)
system.cpu.commit.committedInstType_0::SimdSha1Hash            0      0.00%     65.24% # Class of committed instruction (Count)
system.cpu.commit.committedInstType_0::SimdSha1Hash2            0      0.00%     65.24% # Class of committed instruction (Count)
system.cpu.commit.committedInstType_0::SimdSha256Hash            0      0.00%     65.24% # Class of committed instruction (Count)
system.cpu.commit.committedInstType_0::SimdSha256Hash2            0      0.00%     65.24% # Class of committed instruction (Count)
system.cpu.commit.committedInstType_0::SimdShaSigma2            0      0.00%     65.24% # Class of committed instruction (Count)
system.cpu.commit.committedInstType_0::SimdShaSigma3            0      0.00%     65.24% # Class of committed instruction (Count)
system.cpu.commit.committedInstType_0::SimdPredAlu            0      0.00%     65.24% # Class of committed instruction (Count)
system.cpu.commit.committedInstType_0::MemRead     16614820     19.21%     84.45% # Class of committed instruction (Count)
system.cpu.commit.committedInstType_0::MemWrite      9295996     10.75%     95.20% # Class of committed instruction (Count)
system.cpu.commit.committedInstType_0::FloatMemRead      2701203      3.12%     98.32% # Class of committed instruction (Count)
system.cpu.commit.committedInstType_0::FloatMemWrite      1452850      1.68%    100.00% # Class of committed instruction (Count)
system.cpu.commit.committedInstType_0::IprAccess            0      0.00%    100.00% # Class of committed instruction (Count)
system.cpu.commit.committedInstType_0::InstPrefetch            0      0.00%    100.00% # Class of committed instruction (Count)
system.cpu.commit.committedInstType_0::total     86500844                       # Class of committed instruction (Count)
system.cpu.commit.commitEligibleSamples       4249065                       # number cycles where commit BW limit reached (Cycle)
system.cpu.dcache.demandHits::cpu.data       21136366                       # number of demand (read+write) hits (Count)
system.cpu.dcache.demandHits::total          21136366                       # number of demand (read+write) hits (Count)
system.cpu.dcache.overallHits::cpu.data      21136366                       # number of overall hits (Count)
system.cpu.dcache.overallHits::total         21136366                       # number of overall hits (Count)
system.cpu.dcache.demandMisses::cpu.data       207829                       # number of demand (read+write) misses (Count)
system.cpu.dcache.demandMisses::total          207829                       # number of demand (read+write) misses (Count)
system.cpu.dcache.overallMisses::cpu.data       207829                       # number of overall misses (Count)
system.cpu.dcache.overallMisses::total         207829                       # number of overall misses (Count)
system.cpu.dcache.demandMissLatency::cpu.data  20051198992                       # number of demand (read+write) miss ticks (Tick)
system.cpu.dcache.demandMissLatency::total  20051198992                       # number of demand (read+write) miss ticks (Tick)
system.cpu.dcache.overallMissLatency::cpu.data  20051198992                       # number of overall miss ticks (Tick)
system.cpu.dcache.overallMissLatency::total  20051198992                       # number of overall miss ticks (Tick)
system.cpu.dcache.demandAccesses::cpu.data     21344195                       # number of demand (read+write) accesses (Count)
system.cpu.dcache.demandAccesses::total      21344195                       # number of demand (read+write) accesses (Count)
system.cpu.dcache.overallAccesses::cpu.data     21344195                       # number of overall (read+write) accesses (Count)
system.cpu.dcache.overallAccesses::total     21344195                       # number of overall (read+write) accesses (Count)
system.cpu.dcache.demandMissRate::cpu.data     0.009737                       # miss rate for demand accesses (Ratio)
system.cpu.dcache.demandMissRate::total      0.009737                       # miss rate for demand accesses (Ratio)
system.cpu.dcache.overallMissRate::cpu.data     0.009737                       # miss rate for overall accesses (Ratio)
system.cpu.dcache.overallMissRate::total     0.009737                       # miss rate for overall accesses (Ratio)
system.cpu.dcache.demandAvgMissLatency::cpu.data 96479.312281                       # average overall miss latency ((Cycle/Count))
system.cpu.dcache.demandAvgMissLatency::total 96479.312281                       # average overall miss latency ((Cycle/Count))
system.cpu.dcache.overallAvgMissLatency::cpu.data 96479.312281                       # average overall miss latency ((Cycle/Count))
system.cpu.dcache.overallAvgMissLatency::total 96479.312281                       # average overall miss latency ((Cycle/Count))
system.cpu.dcache.blockedCycles::no_mshrs        20834                       # number of cycles access was blocked (Cycle)
system.cpu.dcache.blockedCycles::no_targets          154                       # number of cycles access was blocked (Cycle)
system.cpu.dcache.blockedCauses::no_mshrs          739                       # number of times access was blocked (Count)
system.cpu.dcache.blockedCauses::no_targets            2                       # number of times access was blocked (Count)
system.cpu.dcache.avgBlocked::no_mshrs      28.192152                       # average number of cycles each access was blocked ((Cycle/Count))
system.cpu.dcache.avgBlocked::no_targets           77                       # average number of cycles each access was blocked ((Cycle/Count))
system.cpu.dcache.writebacks::writebacks        66420                       # number of writebacks (Count)
system.cpu.dcache.writebacks::total             66420                       # number of writebacks (Count)
system.cpu.dcache.demandMshrHits::cpu.data       130377                       # number of demand (read+write) MSHR hits (Count)
system.cpu.dcache.demandMshrHits::total        130377                       # number of demand (read+write) MSHR hits (Count)
system.cpu.dcache.overallMshrHits::cpu.data       130377                       # number of overall MSHR hits (Count)
system.cpu.dcache.overallMshrHits::total       130377                       # number of overall MSHR hits (Count)
system.cpu.dcache.demandMshrMisses::cpu.data        77452                       # number of demand (read+write) MSHR misses (Count)
system.cpu.dcache.demandMshrMisses::total        77452                       # number of demand (read+write) MSHR misses (Count)
system.cpu.dcache.overallMshrMisses::cpu.data        77452                       # number of overall MSHR misses (Count)
system.cpu.dcache.overallMshrMisses::total        77452                       # number of overall MSHR misses (Count)
system.cpu.dcache.demandMshrMissLatency::cpu.data   7429783000                       # number of demand (read+write) MSHR miss ticks (Tick)
system.cpu.dcache.demandMshrMissLatency::total   7429783000                       # number of demand (read+write) MSHR miss ticks (Tick)
system.cpu.dcache.overallMshrMissLatency::cpu.data   7429783000                       # number of overall MSHR miss ticks (Tick)
system.cpu.dcache.overallMshrMissLatency::total   7429783000                       # number of overall MSHR miss ticks (Tick)
system.cpu.dcache.demandMshrMissRate::cpu.data     0.003629                       # mshr miss ratio for demand accesses (Ratio)
system.cpu.dcache.demandMshrMissRate::total     0.003629                       # mshr miss ratio for demand accesses (Ratio)
system.cpu.dcache.overallMshrMissRate::cpu.data     0.003629                       # mshr miss ratio for overall accesses (Ratio)
system.cpu.dcache.overallMshrMissRate::total     0.003629                       # mshr miss ratio for overall accesses (Ratio)
system.cpu.dcache.demandAvgMshrMissLatency::cpu.data 95927.580953                       # average overall mshr miss latency ((Cycle/Count))
system.cpu.dcache.demandAvgMshrMissLatency::total 95927.580953                       # average overall mshr miss latency ((Cycle/Count))
system.cpu.dcache.overallAvgMshrMissLatency::cpu.data 95927.580953                       # average overall mshr miss latency ((Cycle/Count))
system.cpu.dcache.overallAvgMshrMissLatency::total 95927.580953                       # average overall mshr miss latency ((Cycle/Count))
system.cpu.dcache.replacements                  66356                       # number of replacements (Count)
system.cpu.dcache.ReadReq.hits::cpu.data     10422558                       # number of ReadReq hits (Count)
system.cpu.dcache.ReadReq.hits::total        10422558                       # number of ReadReq hits (Count)
system.cpu.dcache.ReadReq.misses::cpu.data       172788                       # number of ReadReq misses (Count)
system.cpu.dcache.ReadReq.misses::total        172788                       # number of ReadReq misses (Count)
system.cpu.dcache.ReadReq.missLatency::cpu.data  17209775000                       # number of ReadReq miss ticks (Tick)
system.cpu.dcache.ReadReq.missLatency::total  17209775000                       # number of ReadReq miss ticks (Tick)
system.cpu.dcache.ReadReq.accesses::cpu.data     10595346                       # number of ReadReq accesses(hits+misses) (Count)
system.cpu.dcache.ReadReq.accesses::total     10595346                       # number of ReadReq accesses(hits+misses) (Count)
system.cpu.dcache.ReadReq.missRate::cpu.data     0.016308                       # miss rate for ReadReq accesses (Ratio)
system.cpu.dcache.ReadReq.missRate::total     0.016308                       # miss rate for ReadReq accesses (Ratio)
system.cpu.dcache.ReadReq.avgMissLatency::cpu.data 99600.522027                       # average ReadReq miss latency ((Tick/Count))
system.cpu.dcache.ReadReq.avgMissLatency::total 99600.522027                       # average ReadReq miss latency ((Tick/Count))
system.cpu.dcache.ReadReq.mshrHits::cpu.data       130304                       # number of ReadReq MSHR hits (Count)
system.cpu.dcache.ReadReq.mshrHits::total       130304                       # number of ReadReq MSHR hits (Count)
system.cpu.dcache.ReadReq.mshrMisses::cpu.data        42484                       # number of ReadReq MSHR misses (Count)
system.cpu.dcache.ReadReq.mshrMisses::total        42484                       # number of ReadReq MSHR misses (Count)
system.cpu.dcache.ReadReq.mshrMissLatency::cpu.data   4658665008                       # number of ReadReq MSHR miss ticks (Tick)
system.cpu.dcache.ReadReq.mshrMissLatency::total   4658665008                       # number of ReadReq MSHR miss ticks (Tick)
system.cpu.dcache.ReadReq.mshrMissRate::cpu.data     0.004010                       # mshr miss rate for ReadReq accesses (Ratio)
system.cpu.dcache.ReadReq.mshrMissRate::total     0.004010                       # mshr miss rate for ReadReq accesses (Ratio)
system.cpu.dcache.ReadReq.avgMshrMissLatency::cpu.data 109656.929856                       # average ReadReq mshr miss latency ((Tick/Count))
system.cpu.dcache.ReadReq.avgMshrMissLatency::total 109656.929856                       # average ReadReq mshr miss latency ((Tick/Count))
system.cpu.dcache.WriteReq.hits::cpu.data     10713808                       # number of WriteReq hits (Count)
system.cpu.dcache.WriteReq.hits::total       10713808                       # number of WriteReq hits (Count)
system.cpu.dcache.WriteReq.misses::cpu.data        35041                       # number of WriteReq misses (Count)
system.cpu.dcache.WriteReq.misses::total        35041                       # number of WriteReq misses (Count)
system.cpu.dcache.WriteReq.missLatency::cpu.data   2841423992                       # number of WriteReq miss ticks (Tick)
system.cpu.dcache.WriteReq.missLatency::total   2841423992                       # number of WriteReq miss ticks (Tick)
system.cpu.dcache.WriteReq.accesses::cpu.data     10748849                       # number of WriteReq accesses(hits+misses) (Count)
system.cpu.dcache.WriteReq.accesses::total     10748849                       # number of WriteReq accesses(hits+misses) (Count)
system.cpu.dcache.WriteReq.missRate::cpu.data     0.003260                       # miss rate for WriteReq accesses (Ratio)
system.cpu.dcache.WriteReq.missRate::total     0.003260                       # miss rate for WriteReq accesses (Ratio)
system.cpu.dcache.WriteReq.avgMissLatency::cpu.data 81088.553181                       # average WriteReq miss latency ((Tick/Count))
system.cpu.dcache.WriteReq.avgMissLatency::total 81088.553181                       # average WriteReq miss latency ((Tick/Count))
system.cpu.dcache.WriteReq.mshrHits::cpu.data           73                       # number of WriteReq MSHR hits (Count)
system.cpu.dcache.WriteReq.mshrHits::total           73                       # number of WriteReq MSHR hits (Count)
system.cpu.dcache.WriteReq.mshrMisses::cpu.data        34968                       # number of WriteReq MSHR misses (Count)
system.cpu.dcache.WriteReq.mshrMisses::total        34968                       # number of WriteReq MSHR misses (Count)
system.cpu.dcache.WriteReq.mshrMissLatency::cpu.data   2771117992                       # number of WriteReq MSHR miss ticks (Tick)
system.cpu.dcache.WriteReq.mshrMissLatency::total   2771117992                       # number of WriteReq MSHR miss ticks (Tick)
system.cpu.dcache.WriteReq.mshrMissRate::cpu.data     0.003253                       # mshr miss rate for WriteReq accesses (Ratio)
system.cpu.dcache.WriteReq.mshrMissRate::total     0.003253                       # mshr miss rate for WriteReq accesses (Ratio)
system.cpu.dcache.WriteReq.avgMshrMissLatency::cpu.data 79247.254404                       # average WriteReq mshr miss latency ((Tick/Count))
system.cpu.dcache.WriteReq.avgMshrMissLatency::total 79247.254404                       # average WriteReq mshr miss latency ((Tick/Count))
system.cpu.dcache.power_state.pwrStateResidencyTicks::UNDEFINED  56540881000                       # Cumulative time (in ticks) in various power states (Tick)
system.cpu.dcache.tags.tagsInUse           511.495918                       # Average ticks per tags in use ((Tick/Count))
system.cpu.dcache.tags.totalRefs             21225810                       # Total number of references to valid blocks. (Count)
system.cpu.dcache.tags.sampledRefs              66868                       # Sample count of references to valid blocks. (Count)
system.cpu.dcache.tags.avgRefs             317.428516                       # Average number of references to valid blocks. ((Count/Count))
system.cpu.dcache.tags.warmupTick              230000                       # The tick when the warmup percentage was hit. (Tick)
system.cpu.dcache.tags.occupancies::cpu.data   511.495918                       # Average occupied blocks per tick, per requestor ((Count/Tick))
system.cpu.dcache.tags.avgOccs::cpu.data     0.999015                       # Average percentage of cache occupancy ((Ratio/Tick))
system.cpu.dcache.tags.avgOccs::total        0.999015                       # Average percentage of cache occupancy ((Ratio/Tick))
system.cpu.dcache.tags.occupanciesTaskId::1024          512                       # Occupied blocks per task id (Count)
system.cpu.dcache.tags.ageTaskId_1024::0           55                       # Occupied blocks per task id, per block age (Count)
system.cpu.dcache.tags.ageTaskId_1024::1          413                       # Occupied blocks per task id, per block age (Count)
system.cpu.dcache.tags.ageTaskId_1024::2           42                       # Occupied blocks per task id, per block age (Count)
system.cpu.dcache.tags.ageTaskId_1024::3            1                       # Occupied blocks per task id, per block age (Count)
system.cpu.dcache.tags.ageTaskId_1024::4            1                       # Occupied blocks per task id, per block age (Count)
system.cpu.dcache.tags.ratioOccsTaskId::1024            1                       # Ratio of occupied blocks and all blocks, per task id (Ratio)
system.cpu.dcache.tags.tagAccesses           42755258                       # Number of tag accesses (Count)
system.cpu.dcache.tags.dataAccesses          42755258                       # Number of data accesses (Count)
system.cpu.dcache.tags.power_state.pwrStateResidencyTicks::UNDEFINED  56540881000                       # Cumulative time (in ticks) in various power states (Tick)
system.cpu.decode.idleCycles                  6262829                       # Number of cycles decode is idle (Cycle)
system.cpu.decode.blockedCycles              34886260                       # Number of cycles decode is blocked (Cycle)
system.cpu.decode.runCycles                  14230888                       # Number of cycles decode is running (Cycle)
system.cpu.decode.unblockCycles                909174                       # Number of cycles decode is unblocking (Cycle)
system.cpu.decode.squashCycles                 149892                       # Number of cycles decode is squashing (Cycle)
system.cpu.decode.branchResolved              4276283                       # Number of times decode resolved a branch (Count)
system.cpu.decode.branchMispred                   790                       # Number of times decode detected a branch misprediction (Count)
system.cpu.decode.decodedInsts              100685580                       # Number of instructions handled by decode (Count)
system.cpu.decode.squashedInsts                  3591                       # Number of squashed instructions handled by decode (Count)
system.cpu.fetch.icacheStallCycles            8460821                       # Number of cycles fetch is stalled on an Icache miss (Cycle)
system.cpu.fetch.insts                       58791601                       # Number of instructions fetch has processed (Count)
system.cpu.fetch.branches                     7659389                       # Number of branches that fetch encountered (Count)
system.cpu.fetch.predictedBranches            5934144                       # Number of branches that fetch has predicted taken (Count)
system.cpu.fetch.cycles                      47820726                       # Number of cycles fetch has run and was not squashing or blocked (Cycle)
system.cpu.fetch.squashCycles                  301322                       # Number of cycles fetch has spent squashing (Cycle)
system.cpu.fetch.miscStallCycles                  832                       # Number of cycles fetch has spent waiting on interrupts, or bad addresses, or out of MSHRs (Cycle)
system.cpu.fetch.pendingTrapStallCycles          5752                       # Number of stall cycles due to pending traps (Cycle)
system.cpu.fetch.pendingQuiesceStallCycles          251                       # Number of stall cycles due to pending quiesce instructions (Cycle)
system.cpu.fetch.cacheLines                   8349272                       # Number of cache lines fetched (Count)
system.cpu.fetch.icacheSquashes                 49550                       # Number of outstanding Icache misses that were squashed (Count)
system.cpu.fetch.nisnDist::samples           56439043                       # Number of instructions fetched each cycle (Total) (Count)
system.cpu.fetch.nisnDist::mean              1.805500                       # Number of instructions fetched each cycle (Total) (Count)
system.cpu.fetch.nisnDist::stdev             3.066875                       # Number of instructions fetched each cycle (Total) (Count)
system.cpu.fetch.nisnDist::underflows               0      0.00%      0.00% # Number of instructions fetched each cycle (Total) (Count)
system.cpu.fetch.nisnDist::0                 39826586     70.57%     70.57% # Number of instructions fetched each cycle (Total) (Count)
system.cpu.fetch.nisnDist::1                   992406      1.76%     72.32% # Number of instructions fetched each cycle (Total) (Count)
system.cpu.fetch.nisnDist::2                   801797      1.42%     73.74% # Number of instructions fetched each cycle (Total) (Count)
system.cpu.fetch.nisnDist::3                  1226839      2.17%     75.92% # Number of instructions fetched each cycle (Total) (Count)
system.cpu.fetch.nisnDist::4                  1491196      2.64%     78.56% # Number of instructions fetched each cycle (Total) (Count)
system.cpu.fetch.nisnDist::5                   849053      1.50%     80.06% # Number of instructions fetched each cycle (Total) (Count)
system.cpu.fetch.nisnDist::6                  1679154      2.98%     83.04% # Number of instructions fetched each cycle (Total) (Count)
system.cpu.fetch.nisnDist::7                  1236890      2.19%     85.23% # Number of instructions fetched each cycle (Total) (Count)
system.cpu.fetch.nisnDist::8                  8335122     14.77%    100.00% # Number of instructions fetched each cycle (Total) (Count)
system.cpu.fetch.nisnDist::overflows                0      0.00%    100.00% # Number of instructions fetched each cycle (Total) (Count)
system.cpu.fetch.nisnDist::min_value                0                       # Number of instructions fetched each cycle (Total) (Count)
system.cpu.fetch.nisnDist::max_value                8                       # Number of instructions fetched each cycle (Total) (Count)
system.cpu.fetch.nisnDist::total             56439043                       # Number of instructions fetched each cycle (Total) (Count)
system.cpu.fetch.branchRate                  0.135466                       # Number of branch fetches per cycle (Ratio)
system.cpu.fetch.rate                        1.039807                       # Number of inst fetches per cycle ((Count/Cycle))
system.cpu.icache.demandHits::cpu.inst        8346203                       # number of demand (read+write) hits (Count)
system.cpu.icache.demandHits::total           8346203                       # number of demand (read+write) hits (Count)
system.cpu.icache.overallHits::cpu.inst       8346203                       # number of overall hits (Count)
system.cpu.icache.overallHits::total          8346203                       # number of overall hits (Count)
system.cpu.icache.demandMisses::cpu.inst         3069                       # number of demand (read+write) misses (Count)
system.cpu.icache.demandMisses::total            3069                       # number of demand (read+write) misses (Count)
system.cpu.icache.overallMisses::cpu.inst         3069                       # number of overall misses (Count)
system.cpu.icache.overallMisses::total           3069                       # number of overall misses (Count)
system.cpu.icache.demandMissLatency::cpu.inst    297585000                       # number of demand (read+write) miss ticks (Tick)
system.cpu.icache.demandMissLatency::total    297585000                       # number of demand (read+write) miss ticks (Tick)
system.cpu.icache.overallMissLatency::cpu.inst    297585000                       # number of overall miss ticks (Tick)
system.cpu.icache.overallMissLatency::total    297585000                       # number of overall miss ticks (Tick)
system.cpu.icache.demandAccesses::cpu.inst      8349272                       # number of demand (read+write) accesses (Count)
system.cpu.icache.demandAccesses::total       8349272                       # number of demand (read+write) accesses (Count)
system.cpu.icache.overallAccesses::cpu.inst      8349272                       # number of overall (read+write) accesses (Count)
system.cpu.icache.overallAccesses::total      8349272                       # number of overall (read+write) accesses (Count)
system.cpu.icache.demandMissRate::cpu.inst     0.000368                       # miss rate for demand accesses (Ratio)
system.cpu.icache.demandMissRate::total      0.000368                       # miss rate for demand accesses (Ratio)
system.cpu.icache.overallMissRate::cpu.inst     0.000368                       # miss rate for overall accesses (Ratio)
system.cpu.icache.overallMissRate::total     0.000368                       # miss rate for overall accesses (Ratio)
system.cpu.icache.demandAvgMissLatency::cpu.inst 96964.809384                       # average overall miss latency ((Cycle/Count))
system.cpu.icache.demandAvgMissLatency::total 96964.809384                       # average overall miss latency ((Cycle/Count))
system.cpu.icache.overallAvgMissLatency::cpu.inst 96964.809384                       # average overall miss latency ((Cycle/Count))
system.cpu.icache.overallAvgMissLatency::total 96964.809384                       # average overall miss latency ((Cycle/Count))
system.cpu.icache.blockedCycles::no_mshrs          388                       # number of cycles access was blocked (Cycle)
system.cpu.icache.blockedCycles::no_targets            0                       # number of cycles access was blocked (Cycle)
system.cpu.icache.blockedCauses::no_mshrs            8                       # number of times access was blocked (Count)
system.cpu.icache.blockedCauses::no_targets            0                       # number of times access was blocked (Count)
system.cpu.icache.avgBlocked::no_mshrs      48.500000                       # average number of cycles each access was blocked ((Cycle/Count))
system.cpu.icache.avgBlocked::no_targets          nan                       # average number of cycles each access was blocked ((Cycle/Count))
system.cpu.icache.demandMshrHits::cpu.inst          742                       # number of demand (read+write) MSHR hits (Count)
system.cpu.icache.demandMshrHits::total           742                       # number of demand (read+write) MSHR hits (Count)
system.cpu.icache.overallMshrHits::cpu.inst          742                       # number of overall MSHR hits (Count)
system.cpu.icache.overallMshrHits::total          742                       # number of overall MSHR hits (Count)
system.cpu.icache.demandMshrMisses::cpu.inst         2327                       # number of demand (read+write) MSHR misses (Count)
system.cpu.icache.demandMshrMisses::total         2327                       # number of demand (read+write) MSHR misses (Count)
system.cpu.icache.overallMshrMisses::cpu.inst         2327                       # number of overall MSHR misses (Count)
system.cpu.icache.overallMshrMisses::total         2327                       # number of overall MSHR misses (Count)
system.cpu.icache.demandMshrMissLatency::cpu.inst    238642000                       # number of demand (read+write) MSHR miss ticks (Tick)
system.cpu.icache.demandMshrMissLatency::total    238642000                       # number of demand (read+write) MSHR miss ticks (Tick)
system.cpu.icache.overallMshrMissLatency::cpu.inst    238642000                       # number of overall MSHR miss ticks (Tick)
system.cpu.icache.overallMshrMissLatency::total    238642000                       # number of overall MSHR miss ticks (Tick)
system.cpu.icache.demandMshrMissRate::cpu.inst     0.000279                       # mshr miss ratio for demand accesses (Ratio)
system.cpu.icache.demandMshrMissRate::total     0.000279                       # mshr miss ratio for demand accesses (Ratio)
system.cpu.icache.overallMshrMissRate::cpu.inst     0.000279                       # mshr miss ratio for overall accesses (Ratio)
system.cpu.icache.overallMshrMissRate::total     0.000279                       # mshr miss ratio for overall accesses (Ratio)
system.cpu.icache.demandAvgMshrMissLatency::cpu.inst 102553.502364                       # average overall mshr miss latency ((Cycle/Count))
system.cpu.icache.demandAvgMshrMissLatency::total 102553.502364                       # average overall mshr miss latency ((Cycle/Count))
system.cpu.icache.overallAvgMshrMissLatency::cpu.inst 102553.502364                       # average overall mshr miss latency ((Cycle/Count))
system.cpu.icache.overallAvgMshrMissLatency::total 102553.502364                       # average overall mshr miss latency ((Cycle/Count))
system.cpu.icache.replacements                   2069                       # number of replacements (Count)
system.cpu.icache.ReadReq.hits::cpu.inst      8346203                       # number of ReadReq hits (Count)
system.cpu.icache.ReadReq.hits::total         8346203                       # number of ReadReq hits (Count)
system.cpu.icache.ReadReq.misses::cpu.inst         3069                       # number of ReadReq misses (Count)
system.cpu.icache.ReadReq.misses::total          3069                       # number of ReadReq misses (Count)
system.cpu.icache.ReadReq.missLatency::cpu.inst    297585000                       # number of ReadReq miss ticks (Tick)
system.cpu.icache.ReadReq.missLatency::total    297585000                       # number of ReadReq miss ticks (Tick)
system.cpu.icache.ReadReq.accesses::cpu.inst      8349272                       # number of ReadReq accesses(hits+misses) (Count)
system.cpu.icache.ReadReq.accesses::total      8349272                       # number of ReadReq accesses(hits+misses) (Count)
system.cpu.icache.ReadReq.missRate::cpu.inst     0.000368                       # miss rate for ReadReq accesses (Ratio)
system.cpu.icache.ReadReq.missRate::total     0.000368                       # miss rate for ReadReq accesses (Ratio)
system.cpu.icache.ReadReq.avgMissLatency::cpu.inst 96964.809384                       # average ReadReq miss latency ((Tick/Count))
system.cpu.icache.ReadReq.avgMissLatency::total 96964.809384                       # average ReadReq miss latency ((Tick/Count))
system.cpu.icache.ReadReq.mshrHits::cpu.inst          742                       # number of ReadReq MSHR hits (Count)
system.cpu.icache.ReadReq.mshrHits::total          742                       # number of ReadReq MSHR hits (Count)
system.cpu.icache.ReadReq.mshrMisses::cpu.inst         2327                       # number of ReadReq MSHR misses (Count)
system.cpu.icache.ReadReq.mshrMisses::total         2327                       # number of ReadReq MSHR misses (Count)
system.cpu.icache.ReadReq.mshrMissLatency::cpu.inst    238642000                       # number of ReadReq MSHR miss ticks (Tick)
system.cpu.icache.ReadReq.mshrMissLatency::total    238642000                       # number of ReadReq MSHR miss ticks (Tick)
system.cpu.icache.ReadReq.mshrMissRate::cpu.inst     0.000279                       # mshr miss rate for ReadReq accesses (Ratio)
system.cpu.icache.ReadReq.mshrMissRate::total     0.000279                       # mshr miss rate for ReadReq accesses (Ratio)
system.cpu.icache.ReadReq.avgMshrMissLatency::cpu.inst 102553.502364                       # average ReadReq mshr miss latency ((Tick/Count))
system.cpu.icache.ReadReq.avgMshrMissLatency::total 102553.502364                       # average ReadReq mshr miss latency ((Tick/Count))
system.cpu.icache.power_state.pwrStateResidencyTicks::UNDEFINED  56540881000                       # Cumulative time (in ticks) in various power states (Tick)
system.cpu.icache.tags.tagsInUse           255.912706                       # Average ticks per tags in use ((Tick/Count))
system.cpu.icache.tags.totalRefs              8348529                       # Total number of references to valid blocks. (Count)
system.cpu.icache.tags.sampledRefs               2326                       # Sample count of references to valid blocks. (Count)
system.cpu.icache.tags.avgRefs            3589.221410                       # Average number of references to valid blocks. ((Count/Count))
system.cpu.icache.tags.warmupTick              107000                       # The tick when the warmup percentage was hit. (Tick)
system.cpu.icache.tags.occupancies::cpu.inst   255.912706                       # Average occupied blocks per tick, per requestor ((Count/Tick))
system.cpu.icache.tags.avgOccs::cpu.inst     0.999659                       # Average percentage of cache occupancy ((Ratio/Tick))
system.cpu.icache.tags.avgOccs::total        0.999659                       # Average percentage of cache occupancy ((Ratio/Tick))
system.cpu.icache.tags.occupanciesTaskId::1024          256                       # Occupied blocks per task id (Count)
system.cpu.icache.tags.ageTaskId_1024::0           73                       # Occupied blocks per task id, per block age (Count)
system.cpu.icache.tags.ageTaskId_1024::1          155                       # Occupied blocks per task id, per block age (Count)
system.cpu.icache.tags.ageTaskId_1024::4           28                       # Occupied blocks per task id, per block age (Count)
system.cpu.icache.tags.ratioOccsTaskId::1024            1                       # Ratio of occupied blocks and all blocks, per task id (Ratio)
system.cpu.icache.tags.tagAccesses           16700870                       # Number of tag accesses (Count)
system.cpu.icache.tags.dataAccesses          16700870                       # Number of data accesses (Count)
system.cpu.icache.tags.power_state.pwrStateResidencyTicks::UNDEFINED  56540881000                       # Cumulative time (in ticks) in various power states (Tick)
system.cpu.interrupts.clk_domain.clock          16000                       # Clock period in ticks (Tick)
system.cpu.lsq0.forwLoads                    11412468                       # Number of loads that had data forwarded from stores (Count)
system.cpu.lsq0.squashedLoads                 3535205                       # Number of loads squashed (Count)
system.cpu.lsq0.ignoredResponses                24729                       # Number of memory responses ignored because the instruction is squashed (Count)
system.cpu.lsq0.memOrderViolation                3104                       # Number of memory ordering violations (Count)
system.cpu.lsq0.squashedStores                 791010                       # Number of stores squashed (Count)
system.cpu.lsq0.rescheduledLoads                    5                       # Number of loads that were rescheduled (Count)
system.cpu.lsq0.blockedByCache                    576                       # Number of times an access to memory failed due to the cache being blocked (Count)
system.cpu.lsq0.loadToUse::samples           19316023                       # Distribution of cycle latency between the first time a load is issued and its completion (Unspecified)
system.cpu.lsq0.loadToUse::mean              3.417986                       # Distribution of cycle latency between the first time a load is issued and its completion (Unspecified)
system.cpu.lsq0.loadToUse::stdev            10.277408                       # Distribution of cycle latency between the first time a load is issued and its completion (Unspecified)
system.cpu.lsq0.loadToUse::0-9               19155980     99.17%     99.17% # Distribution of cycle latency between the first time a load is issued and its completion (Unspecified)
system.cpu.lsq0.loadToUse::10-19                 1831      0.01%     99.18% # Distribution of cycle latency between the first time a load is issued and its completion (Unspecified)
system.cpu.lsq0.loadToUse::20-29                 2516      0.01%     99.19% # Distribution of cycle latency between the first time a load is issued and its completion (Unspecified)
system.cpu.lsq0.loadToUse::30-39                 8488      0.04%     99.24% # Distribution of cycle latency between the first time a load is issued and its completion (Unspecified)
system.cpu.lsq0.loadToUse::40-49                  678      0.00%     99.24% # Distribution of cycle latency between the first time a load is issued and its completion (Unspecified)
system.cpu.lsq0.loadToUse::50-59                 8728      0.05%     99.29% # Distribution of cycle latency between the first time a load is issued and its completion (Unspecified)
system.cpu.lsq0.loadToUse::60-69                 1289      0.01%     99.29% # Distribution of cycle latency between the first time a load is issued and its completion (Unspecified)
system.cpu.lsq0.loadToUse::70-79                 1961      0.01%     99.30% # Distribution of cycle latency between the first time a load is issued and its completion (Unspecified)
system.cpu.lsq0.loadToUse::80-89                24630      0.13%     99.43% # Distribution of cycle latency between the first time a load is issued and its completion (Unspecified)
system.cpu.lsq0.loadToUse::90-99                28547      0.15%     99.58% # Distribution of cycle latency between the first time a load is issued and its completion (Unspecified)
system.cpu.lsq0.loadToUse::100-109              25263      0.13%     99.71% # Distribution of cycle latency between the first time a load is issued and its completion (Unspecified)
system.cpu.lsq0.loadToUse::110-119              19345      0.10%     99.81% # Distribution of cycle latency between the first time a load is issued and its completion (Unspecified)
system.cpu.lsq0.loadToUse::120-129              17111      0.09%     99.90% # Distribution of cycle latency between the first time a load is issued and its completion (Unspecified)
system.cpu.lsq0.loadToUse::130-139                672      0.00%     99.90% # Distribution of cycle latency between the first time a load is issued and its completion (Unspecified)
system.cpu.lsq0.loadToUse::140-149                412      0.00%     99.90% # Distribution of cycle latency between the first time a load is issued and its completion (Unspecified)
system.cpu.lsq0.loadToUse::150-159                390      0.00%     99.91% # Distribution of cycle latency between the first time a load is issued and its completion (Unspecified)
system.cpu.lsq0.loadToUse::160-169               7143      0.04%     99.94% # Distribution of cycle latency between the first time a load is issued and its completion (Unspecified)
system.cpu.lsq0.loadToUse::170-179               1349      0.01%     99.95% # Distribution of cycle latency between the first time a load is issued and its completion (Unspecified)
system.cpu.lsq0.loadToUse::180-189               1909      0.01%     99.96% # Distribution of cycle latency between the first time a load is issued and its completion (Unspecified)
system.cpu.lsq0.loadToUse::190-199               1280      0.01%     99.97% # Distribution of cycle latency between the first time a load is issued and its completion (Unspecified)
system.cpu.lsq0.loadToUse::200-209               1182      0.01%     99.97% # Distribution of cycle latency between the first time a load is issued and its completion (Unspecified)
system.cpu.lsq0.loadToUse::210-219               1348      0.01%     99.98% # Distribution of cycle latency between the first time a load is issued and its completion (Unspecified)
system.cpu.lsq0.loadToUse::220-229                669      0.00%     99.98% # Distribution of cycle latency between the first time a load is issued and its completion (Unspecified)
system.cpu.lsq0.loadToUse::230-239                418      0.00%     99.99% # Distribution of cycle latency between the first time a load is issued and its completion (Unspecified)
system.cpu.lsq0.loadToUse::240-249                395      0.00%     99.99% # Distribution of cycle latency between the first time a load is issued and its completion (Unspecified)
system.cpu.lsq0.loadToUse::250-259                235      0.00%     99.99% # Distribution of cycle latency between the first time a load is issued and its completion (Unspecified)
system.cpu.lsq0.loadToUse::260-269                264      0.00%     99.99% # Distribution of cycle latency between the first time a load is issued and its completion (Unspecified)
system.cpu.lsq0.loadToUse::270-279                175      0.00%     99.99% # Distribution of cycle latency between the first time a load is issued and its completion (Unspecified)
system.cpu.lsq0.loadToUse::280-289                173      0.00%     99.99% # Distribution of cycle latency between the first time a load is issued and its completion (Unspecified)
system.cpu.lsq0.loadToUse::290-299                180      0.00%     99.99% # Distribution of cycle latency between the first time a load is issued and its completion (Unspecified)
system.cpu.lsq0.loadToUse::overflows             1462      0.01%    100.00% # Distribution of cycle latency between the first time a load is issued and its completion (Unspecified)
[...]
system.victimbus.snoops                        118950                       # Total snoops (Count)
system.victimbus.snoopTraffic                 7612544                       # Total snoop traffic (Byte)
system.victimbus.snoopFanout::samples          196410                       # Request fanout histogram (Count)
system.victimbus.snoopFanout::mean           0.304216                       # Request fanout histogram (Count)
system.victimbus.snoopFanout::stdev          0.460076                       # Request fanout histogram (Count)
system.victimbus.snoopFanout::underflows            0      0.00%      0.00% # Request fanout histogram (Count)
system.victimbus.snoopFanout::0                136659     69.58%     69.58% # Request fanout histogram (Count)
system.victimbus.snoopFanout::1                 59751     30.42%    100.00% # Request fanout histogram (Count)
system.victimbus.snoopFanout::overflows             0      0.00%    100.00% # Request fanout histogram (Count)
system.victimbus.snoopFanout::min_value             0                       # Request fanout histogram (Count)
system.victimbus.snoopFanout::max_value             1                       # Request fanout histogram (Count)
system.victimbus.snoopFanout::total            196410                       # Request fanout histogram (Count)
system.victimbus.power_state.pwrStateResidencyTicks::UNDEFINED  56540881000                       # Cumulative time (in ticks) in various power states (Tick)
system.victimbus.reqLayer0.occupancy        210314993                       # Layer occupancy (ticks) (Tick)
system.victimbus.reqLayer0.utilization            0.0                       # Layer utilization (Ratio)
system.victimbus.respLayer0.occupancy       221768547                       # Layer occupancy (ticks) (Tick)
system.victimbus.respLayer0.utilization           0.0                       # Layer utilization (Ratio)
system.victimbus.snoopLayer0.occupancy           2000                       # Layer occupancy (ticks) (Tick)
system.victimbus.snoopLayer0.utilization          0.0                       # Layer utilization (Ratio)
system.victimbus.snoop_filter.totRequests       143888                       # Total number of requests made to the snoop filter. (Count)
system.victimbus.snoop_filter.hitSingleRequests        76956                       # Number of requests hitting in the snoop filter with a single holder of the requested data. (Count)
system.victimbus.snoop_filter.hitMultiRequests            0                       # Number of requests hitting in the snoop filter with multiple (>1) holders of the requested data. (Count)
system.victimbus.snoop_filter.totSnoops         59751                       # Total number of snoops made to the snoop filter. (Count)
system.victimbus.snoop_filter.hitSingleSnoops        59751                       # Number of snoops hitting in the snoop filter with a single holder of the requested data. (Count)
system.victimbus.snoop_filter.hitMultiSnoops            0                       # Number of snoops hitting in the snoop filter with multiple (>1) holders of the requested data. (Count)
system.victimcache.demandHits::cpu.data          7204                       # number of demand (read+write) hits (Count)
system.victimcache.demandHits::total             7204                       # number of demand (read+write) hits (Count)
system.victimcache.overallHits::cpu.data         7204                       # number of overall hits (Count)
system.victimcache.overallHits::total            7204                       # number of overall hits (Count)
system.victimcache.demandMisses::cpu.data        59728                       # number of demand (read+write) misses (Count)
system.victimcache.demandMisses::total          59728                       # number of demand (read+write) misses (Count)
system.victimcache.overallMisses::cpu.data        59728                       # number of overall misses (Count)
system.victimcache.overallMisses::total         59728                       # number of overall misses (Count)
system.victimcache.demandMissLatency::cpu.data   6686053000                       # number of demand (read+write) miss ticks (Tick)
system.victimcache.demandMissLatency::total   6686053000                       # number of demand (read+write) miss ticks (Tick)
system.victimcache.overallMissLatency::cpu.data   6686053000                       # number of overall miss ticks (Tick)
system.victimcache.overallMissLatency::total   6686053000                       # number of overall miss ticks (Tick)
system.victimcache.demandAccesses::cpu.data        66932                       # number of demand (read+write) accesses (Count)
system.victimcache.demandAccesses::total        66932                       # number of demand (read+write) accesses (Count)
system.victimcache.overallAccesses::cpu.data        66932                       # number of overall (read+write) accesses (Count)
system.victimcache.overallAccesses::total        66932                       # number of overall (read+write) accesses (Count)
system.victimcache.demandMissRate::cpu.data     0.892368                       # miss rate for demand accesses (Ratio)
system.victimcache.demandMissRate::total     0.892368                       # miss rate for demand accesses (Ratio)
system.victimcache.overallMissRate::cpu.data     0.892368                       # miss rate for overall accesses (Ratio)
system.victimcache.overallMissRate::total     0.892368                       # miss rate for overall accesses (Ratio)
system.victimcache.demandAvgMissLatency::cpu.data 111941.685642                       # average overall miss latency ((Cycle/Count))
system.victimcache.demandAvgMissLatency::total 111941.685642                       # average overall miss latency ((Cycle/Count))
system.victimcache.overallAvgMissLatency::cpu.data 111941.685642                       # average overall miss latency ((Cycle/Count))
system.victimcache.overallAvgMissLatency::total 111941.685642                       # average overall miss latency ((Cycle/Count))
system.victimcache.blockedCycles::no_mshrs        18724                       # number of cycles access was blocked (Cycle)
system.victimcache.blockedCycles::no_targets            0                       # number of cycles access was blocked (Cycle)
system.victimcache.blockedCauses::no_mshrs          606                       # number of times access was blocked (Count)
system.victimcache.blockedCauses::no_targets            0                       # number of times access was blocked (Count)
system.victimcache.avgBlocked::no_mshrs     30.897690                       # average number of cycles each access was blocked ((Cycle/Count))
system.victimcache.avgBlocked::no_targets          nan                       # average number of cycles each access was blocked ((Cycle/Count))
system.victimcache.writebacks::writebacks       118926                       # number of writebacks (Count)
system.victimcache.writebacks::total           118926                       # number of writebacks (Count)
system.victimcache.demandMshrMisses::cpu.data        59728                       # number of demand (read+write) MSHR misses (Count)
system.victimcache.demandMshrMisses::total        59728                       # number of demand (read+write) MSHR misses (Count)
system.victimcache.overallMshrMisses::cpu.data        59728                       # number of overall MSHR misses (Count)
system.victimcache.overallMshrMisses::total        59728                       # number of overall MSHR misses (Count)
system.victimcache.demandMshrMissLatency::cpu.data   6686053000                       # number of demand (read+write) MSHR miss ticks (Tick)
system.victimcache.demandMshrMissLatency::total   6686053000                       # number of demand (read+write) MSHR miss ticks (Tick)
system.victimcache.overallMshrMissLatency::cpu.data   6686053000                       # number of overall MSHR miss ticks (Tick)
system.victimcache.overallMshrMissLatency::total   6686053000                       # number of overall MSHR miss ticks (Tick)
system.victimcache.demandMshrMissRate::cpu.data     0.892368                       # mshr miss ratio for demand accesses (Ratio)
system.victimcache.demandMshrMissRate::total     0.892368                       # mshr miss ratio for demand accesses (Ratio)
system.victimcache.overallMshrMissRate::cpu.data     0.892368                       # mshr miss ratio for overall accesses (Ratio)
system.victimcache.overallMshrMissRate::total     0.892368                       # mshr miss ratio for overall accesses (Ratio)
system.victimcache.demandAvgMshrMissLatency::cpu.data 111941.685642                       # average overall mshr miss latency ((Cycle/Count))
system.victimcache.demandAvgMshrMissLatency::total 111941.685642                       # average overall mshr miss latency ((Cycle/Count))
system.victimcache.overallAvgMshrMissLatency::cpu.data 111941.685642                       # average overall mshr miss latency ((Cycle/Count))
system.victimcache.overallAvgMshrMissLatency::total 111941.685642                       # average overall mshr miss latency ((Cycle/Count))
system.victimcache.replacements                 59200                       # number of replacements (Count)
system.victimcache.ReadExReq.hits::cpu.data         5770                       # number of ReadExReq hits (Count)
system.victimcache.ReadExReq.hits::total         5770                       # number of ReadExReq hits (Count)
system.victimcache.ReadExReq.misses::cpu.data        18742                       # number of ReadExReq misses (Count)
system.victimcache.ReadExReq.misses::total        18742                       # number of ReadExReq misses (Count)
system.victimcache.ReadExReq.missLatency::cpu.data   2155187000                       # number of ReadExReq miss ticks (Tick)
system.victimcache.ReadExReq.missLatency::total   2155187000                       # number of ReadExReq miss ticks (Tick)
system.victimcache.ReadExReq.accesses::cpu.data        24512                       # number of ReadExReq accesses(hits+misses) (Count)
system.victimcache.ReadExReq.accesses::total        24512                       # number of ReadExReq accesses(hits+misses) (Count)
system.victimcache.ReadExReq.missRate::cpu.data     0.764605                       # miss rate for ReadExReq accesses (Ratio)
system.victimcache.ReadExReq.missRate::total     0.764605                       # miss rate for ReadExReq accesses (Ratio)
system.victimcache.ReadExReq.avgMissLatency::cpu.data 114992.370078                       # average ReadExReq miss latency ((Tick/Count))
system.victimcache.ReadExReq.avgMissLatency::total 114992.370078                       # average ReadExReq miss latency ((Tick/Count))
system.victimcache.ReadExReq.mshrMisses::cpu.data        18742                       # number of ReadExReq MSHR misses (Count)
system.victimcache.ReadExReq.mshrMisses::total        18742                       # number of ReadExReq MSHR misses (Count)
system.victimcache.ReadExReq.mshrMissLatency::cpu.data   2155187000                       # number of ReadExReq MSHR miss ticks (Tick)
system.victimcache.ReadExReq.mshrMissLatency::total   2155187000                       # number of ReadExReq MSHR miss ticks (Tick)
system.victimcache.ReadExReq.mshrMissRate::cpu.data     0.764605                       # mshr miss rate for ReadExReq accesses (Ratio)
system.victimcache.ReadExReq.mshrMissRate::total     0.764605                       # mshr miss rate for ReadExReq accesses (Ratio)
system.victimcache.ReadExReq.avgMshrMissLatency::cpu.data 114992.370078                       # average ReadExReq mshr miss latency ((Tick/Count))
system.victimcache.ReadExReq.avgMshrMissLatency::total 114992.370078                       # average ReadExReq mshr miss latency ((Tick/Count))
system.victimcache.ReadSharedReq.hits::cpu.data         1434                       # number of ReadSharedReq hits (Count)
system.victimcache.ReadSharedReq.hits::total         1434                       # number of ReadSharedReq hits (Count)
system.victimcache.ReadSharedReq.misses::cpu.data        40986                       # number of ReadSharedReq misses (Count)
system.victimcache.ReadSharedReq.misses::total        40986                       # number of ReadSharedReq misses (Count)
system.victimcache.ReadSharedReq.missLatency::cpu.data   4530866000                       # number of ReadSharedReq miss ticks (Tick)
system.victimcache.ReadSharedReq.missLatency::total   4530866000                       # number of ReadSharedReq miss ticks (Tick)
system.victimcache.ReadSharedReq.accesses::cpu.data        42420                       # number of ReadSharedReq accesses(hits+misses) (Count)
system.victimcache.ReadSharedReq.accesses::total        42420                       # number of ReadSharedReq accesses(hits+misses) (Count)
system.victimcache.ReadSharedReq.missRate::cpu.data     0.966195                       # miss rate for ReadSharedReq accesses (Ratio)
system.victimcache.ReadSharedReq.missRate::total     0.966195                       # miss rate for ReadSharedReq accesses (Ratio)
system.victimcache.ReadSharedReq.avgMissLatency::cpu.data 110546.674474                       # average ReadSharedReq miss latency ((Tick/Count))
system.victimcache.ReadSharedReq.avgMissLatency::total 110546.674474                       # average ReadSharedReq miss latency ((Tick/Count))
system.victimcache.ReadSharedReq.mshrMisses::cpu.data        40986                       # number of ReadSharedReq MSHR misses (Count)
system.victimcache.ReadSharedReq.mshrMisses::total        40986                       # number of ReadSharedReq MSHR misses (Count)
system.victimcache.ReadSharedReq.mshrMissLatency::cpu.data   4530866000                       # number of ReadSharedReq MSHR miss ticks (Tick)
system.victimcache.ReadSharedReq.mshrMissLatency::total   4530866000                       # number of ReadSharedReq MSHR miss ticks (Tick)
system.victimcache.ReadSharedReq.mshrMissRate::cpu.data     0.966195                       # mshr miss rate for ReadSharedReq accesses (Ratio)
system.victimcache.ReadSharedReq.mshrMissRate::total     0.966195                       # mshr miss rate for ReadSharedReq accesses (Ratio)
system.victimcache.ReadSharedReq.avgMshrMissLatency::cpu.data 110546.674474                       # average ReadSharedReq mshr miss latency ((Tick/Count))
system.victimcache.ReadSharedReq.avgMshrMissLatency::total 110546.674474                       # average ReadSharedReq mshr miss latency ((Tick/Count))
system.victimcache.UpgradeReq.misses::cpu.data        10529                       # number of UpgradeReq misses (Count)
system.victimcache.UpgradeReq.misses::total        10529                       # number of UpgradeReq misses (Count)
system.victimcache.UpgradeReq.accesses::cpu.data        10529                       # number of UpgradeReq accesses(hits+misses) (Count)
system.victimcache.UpgradeReq.accesses::total        10529                       # number of UpgradeReq accesses(hits+misses) (Count)
system.victimcache.UpgradeReq.missRate::cpu.data            1                       # miss rate for UpgradeReq accesses (Ratio)
system.victimcache.UpgradeReq.missRate::total            1                       # miss rate for UpgradeReq accesses (Ratio)
system.victimcache.UpgradeReq.mshrMisses::cpu.data        10529                       # number of UpgradeReq MSHR misses (Count)
system.victimcache.UpgradeReq.mshrMisses::total        10529                       # number of UpgradeReq MSHR misses (Count)
system.victimcache.UpgradeReq.mshrMissLatency::cpu.data    510192000                       # number of UpgradeReq MSHR miss ticks (Tick)
system.victimcache.UpgradeReq.mshrMissLatency::total    510192000                       # number of UpgradeReq MSHR miss ticks (Tick)
system.victimcache.UpgradeReq.mshrMissRate::cpu.data            1                       # mshr miss rate for UpgradeReq accesses (Ratio)
system.victimcache.UpgradeReq.mshrMissRate::total            1                       # mshr miss rate for UpgradeReq accesses (Ratio)
system.victimcache.UpgradeReq.avgMshrMissLatency::cpu.data 48455.883750                       # average UpgradeReq mshr miss latency ((Tick/Count))
system.victimcache.UpgradeReq.avgMshrMissLatency::total 48455.883750                       # average UpgradeReq mshr miss latency ((Tick/Count))
system.victimcache.WritebackClean.hits::writebacks        30446                       # number of WritebackClean hits (Count)
system.victimcache.WritebackClean.hits::total        30446                       # number of WritebackClean hits (Count)
system.victimcache.WritebackClean.accesses::writebacks        30446                       # number of WritebackClean accesses(hits+misses) (Count)
system.victimcache.WritebackClean.accesses::total        30446                       # number of WritebackClean accesses(hits+misses) (Count)
system.victimcache.WritebackDirty.hits::writebacks        35974                       # number of WritebackDirty hits (Count)
system.victimcache.WritebackDirty.hits::total        35974                       # number of WritebackDirty hits (Count)
system.victimcache.WritebackDirty.accesses::writebacks        35974                       # number of WritebackDirty accesses(hits+misses) (Count)
system.victimcache.WritebackDirty.accesses::total        35974                       # number of WritebackDirty accesses(hits+misses) (Count)
system.victimcache.power_state.pwrStateResidencyTicks::UNDEFINED  56540881000                       # Cumulative time (in ticks) in various power states (Tick)
system.victimcache.tags.tagsInUse           15.987383                       # Average ticks per tags in use ((Tick/Count))
system.victimcache.tags.totalRefs               73626                       # Total number of references to valid blocks. (Count)
system.victimcache.tags.sampledRefs             66420                       # Sample count of references to valid blocks. (Count)
system.victimcache.tags.avgRefs              1.108491                       # Average number of references to valid blocks. ((Count/Count))
system.victimcache.tags.warmupTick           13529000                       # The tick when the warmup percentage was hit. (Tick)
system.victimcache.tags.occupancies::writebacks    15.987383                       # Average occupied blocks per tick, per requestor ((Count/Tick))
system.victimcache.tags.avgOccs::writebacks     0.999211                       # Average percentage of cache occupancy ((Ratio/Tick))
system.victimcache.tags.avgOccs::total       0.999211                       # Average percentage of cache occupancy ((Ratio/Tick))
system.victimcache.tags.occupanciesTaskId::1024           16                       # Occupied blocks per task id (Count)
system.victimcache.tags.ageTaskId_1024::0           16                       # Occupied blocks per task id, per block age (Count)
system.victimcache.tags.ratioOccsTaskId::1024            1                       # Ratio of occupied blocks and all blocks, per task id (Ratio)
system.victimcache.tags.tagAccesses           2368516                       # Number of tag accesses (Count)
system.victimcache.tags.dataAccesses          2368516                       # Number of data accesses (Count)
system.victimcache.tags.power_state.pwrStateResidencyTicks::UNDEFINED  56540881000                       # Cumulative time (in ticks) in various power states (Tick)
system.workload.inst.arm                            0                       # number of arm instructions executed (Count)
system.workload.inst.quiesce                        0                       # number of quiesce instructions executed (Count)

---------- End Simulation Statistics   ----------
