
---------- Begin Simulation Statistics ----------
simSeconds                                   0.000084                       # Number of seconds simulated (Second)
simTicks                                     84400000                       # Number of ticks simulated (Tick)
finalTick                                    84400000                       # Number of ticks from beginning of simulation (restored from checkpoints and never reset) (Tick)
simFreq                                  1000000000000                       # The number of ticks per simulated second ((Tick/Second))
hostSeconds                                      0.27                       # Real time elapsed on the host (Second)
hostTickRate                                312291868                       # The number of ticks simulated per host second (ticks/s) ((Tick/Second))
hostMemory                                     645992                       # Number of bytes of host memory used (Byte)
simInsts                                        65836                       # Number of instructions simulated (Count)
simOps                                         122942                       # Number of ops (including micro ops) simulated (Count)
hostInstRate                                   243480                       # Simulator instruction rate (inst/s) ((Count/Second))
hostOpRate                                     454658                       # Simulator op (including micro ops) rate (op/s) ((Count/Second))
system.clk_domain.clock                          1000                       # Clock period in ticks (Tick)
system.clk_domain.voltage_domain.voltage            1                       # Voltage in Volts (Volt)
system.cpu.numCycles                            84401                       # Number of cpu cycles simulated (Cycle)
system.cpu.numWorkItemsStarted                      0                       # Number of work items this cpu started (Count)
system.cpu.numWorkItemsCompleted                    0                       # Number of work items this cpu completed (Count)
system.cpu.instsAdded                          136703                       # Number of instructions added to the IQ (excludes non-spec) (Count)
system.cpu.nonSpecInstsAdded                        1                       # Number of non-speculative instructions added to the IQ (Count)
system.cpu.instsIssued                         133567                       # Number of instructions issued (Count)
system.cpu.squashedInstsIssued                     56                       # Number of squashed instructions issued (Count)
system.cpu.squashedInstsExamined                13756                       # Number of squashed instructions iterated over during squash; mainly for profiling (Count)
system.cpu.squashedOperandsExamined             15329                       # Number of squashed operands that are examined and possibly removed from graph (Count)
system.cpu.squashedNonSpecRemoved                   1                       # Number of squashed non-spec instructions that were removed (Count)
system.cpu.numIssuedDist::samples               63248                       # Number of insts issued each cycle (Count)
system.cpu.numIssuedDist::mean               2.111798                       # Number of insts issued each cycle (Count)
system.cpu.numIssuedDist::stdev              2.173868                       # Number of insts issued each cycle (Count)
system.cpu.numIssuedDist::underflows                0      0.00%      0.00% # Number of insts issued each cycle (Count)
system.cpu.numIssuedDist::0                     22840     36.11%     36.11% # Number of insts issued each cycle (Count)
system.cpu.numIssuedDist::1                      9976     15.77%     51.88% # Number of insts issued each cycle (Count)
system.cpu.numIssuedDist::2                      9459     14.96%     66.84% # Number of insts issued each cycle (Count)
system.cpu.numIssuedDist::3                       997      1.58%     68.42% # Number of insts issued each cycle (Count)
system.cpu.numIssuedDist::4                      1022      1.62%     70.03% # Number of insts issued each cycle (Count)
system.cpu.numIssuedDist::5                     17260     27.29%     97.32% # Number of insts issued each cycle (Count)
system.cpu.numIssuedDist::6                       885      1.40%     98.72% # Number of insts issued each cycle (Count)
system.cpu.numIssuedDist::7                       488      0.77%     99.49% # Number of insts issued each cycle (Count)
system.cpu.numIssuedDist::8                       321      0.51%    100.00% # Number of insts issued each cycle (Count)
system.cpu.numIssuedDist::overflows                 0      0.00%    100.00% # Number of insts issued each cycle (Count)
system.cpu.numIssuedDist::min_value                 0                       # Number of insts issued each cycle (Count)
system.cpu.numIssuedDist::max_value                 8                       # Number of insts issued each cycle (Count)
system.cpu.numIssuedDist::total                 63248                       # Number of insts issued each cycle (Count)
system.cpu.statFuBusy::No_OpClass                   0      0.00%      0.00% # attempts to use FU when none available (Count)
system.cpu.statFuBusy::IntAlu                     263     81.17%     81.17% # attempts to use FU when none available (Count)
system.cpu.statFuBusy::IntMult                      0      0.00%     81.17% # attempts to use FU when none available (Count)
system.cpu.statFuBusy::IntDiv                       0      0.00%     81.17% # attempts to use FU when none available (Count)
system.cpu.statFuBusy::FloatAdd                     0      0.00%     81.17% # attempts to use FU when none available (Count)
system.cpu.statFuBusy::FloatCmp                     0      0.00%     81.17% # attempts to use FU when none available (Count)
system.cpu.statFuBusy::FloatCvt                     0      0.00%     81.17% # attempts to use FU when none available (Count)
system.cpu.statFuBusy::FloatMult                    0      0.00%     81.17% # attempts to use FU when none available (Count)
system.cpu.statFuBusy::FloatMultAcc                 0      0.00%     81.17% # attempts to use FU when none available (Count)
system.cpu.statFuBusy::FloatDiv                     0      0.00%     81.17% # attempts to use FU when none available (Count)
system.cpu.statFuBusy::FloatMisc                    0      0.00%     81.17% # attempts to use FU when none available (Count)
system.cpu.statFuBusy::FloatSqrt                    0      0.00%     81.17% # attempts to use FU when none available (Count)
system.cpu.statFuBusy::SimdAdd                      0      0.00%     81.17% # attempts to use FU when none available (Count)
system.cpu.statFuBusy::SimdAddAcc                   0      0.00%     81.17% # attempts to use FU when none available (Count)
system.cpu.statFuBusy::SimdAlu                     11      3.40%     84.57% # attempts to use FU when none available (Count)
system.cpu.statFuBusy::SimdCmp                      0      0.00%     84.57% # attempts to use FU when none available (Count)
system.cpu.statFuBusy::SimdCvt                      1      0.31%     84.88% # attempts to use FU when none available (Count)
system.cpu.statFuBusy::SimdMisc                     2      0.62%     85.49% # attempts to use FU when none available (Count)
system.cpu.statFuBusy::SimdMult                     0      0.00%     85.49% # attempts to use FU when none available (Count)
system.cpu.statFuBusy::SimdMultAcc                  0      0.00%     85.49% # attempts to use FU when none available (Count)
system.cpu.statFuBusy::SimdShift                    0      0.00%     85.49% # attempts to use FU when none available (Count)
system.cpu.statFuBusy::SimdShiftAcc                 0      0.00%     85.49% # attempts to use FU when none available (Count)
system.cpu.statFuBusy::SimdDiv                      0      0.00%     85.49% # attempts to use FU when none available (Count)
system.cpu.statFuBusy::SimdSqrt                     0      0.00%     85.49% # attempts to use FU when none available (Count)
system.cpu.statFuBusy::SimdFloatAdd                 0      0.00%     85.49% # attempts to use FU when none available (Count)
system.cpu.statFuBusy::SimdFloatAlu                 0      0.00%     85.49% # attempts to use FU when none available (Count)
system.cpu.statFuBusy::SimdFloatCmp                 0      0.00%     85.49% # attempts to use FU when none available (Count)
system.cpu.statFuBusy::SimdFloatCvt                 0      0.00%     85.49% # attempts to use FU when none available (Count)
system.cpu.statFuBusy::SimdFloatDiv                 0      0.00%     85.49% # attempts to use FU when none available (Count)
system.cpu.statFuBusy::SimdFloatMisc                0      0.00%     85.49% # attempts to use FU when none available (Count)
system.cpu.statFuBusy::SimdFloatMult                0      0.00%     85.49% # attempts to use FU when none available (Count)
system.cpu.statFuBusy::SimdFloatMultAcc             0      0.00%     85.49% # attempts to use FU when none available (Count)
system.cpu.statFuBusy::SimdFloatSqrt                0      0.00%     85.49% # attempts to use FU when none available (Count)
system.cpu.statFuBusy::SimdReduceAdd                0      0.00%     85.49% # attempts to use FU when none available (Count)
system.cpu.statFuBusy::SimdReduceAlu                0      0.00%     85.49% # attempts to use FU when none available (Count)
system.cpu.statFuBusy::SimdReduceCmp                0      0.00%     85.49% # attempts to use FU when none available (Count)
system.cpu.statFuBusy::SimdFloatReduceAdd            0      0.00%     85.49% # attempts to use FU when none available (Count)
system.cpu.statFuBusy::SimdFloatReduceCmp            0      0.00%     85.49% # attempts to use FU when none available (Count)
system.cpu.statFuBusy::SimdAes                      0      0.00%     85.49% # attempts to use FU when none available (Count)
system.cpu.statFuBusy::SimdAesMix                   0      0.00%     85.49% # attempts to use FU when none available (Count)
system.cpu.statFuBusy::SimdSha1Hash                 0      0.00%     85.49% # attempts to use FU when none available (Count)
system.cpu.statFuBusy::SimdSha1Hash2                0      0.00%     85.49% # attempts to use FU when none available (Count)
system.cpu.statFuBusy::SimdSha256Hash               0      0.00%     85.49% # attempts to use FU when none available (Count)
system.cpu.statFuBusy::SimdSha256Hash2              0      0.00%     85.49% # attempts to use FU when none available (Count)
system.cpu.statFuBusy::SimdShaSigma2                0      0.00%     85.49% # attempts to use FU when none available (Count)
system.cpu.statFuBusy::SimdShaSigma3                0      0.00%     85.49% # attempts to use FU when none available (Count)
system.cpu.statFuBusy::SimdPredAlu                  0      0.00%     85.49% # attempts to use FU when none available (Count)
system.cpu.statFuBusy::MemRead                     19      5.86%     91.36% # attempts to use FU when none available (Count)
system.cpu.statFuBusy::MemWrite                    16      4.94%     96.30% # attempts to use FU when none available (Count)
system.cpu.statFuBusy::FloatMemRead                 4      1.23%     97.53% # attempts to use FU when none available (Count)
system.cpu.statFuBusy::FloatMemWrite                8      2.47%    100.00% # attempts to use FU when none available (Count)
system.cpu.statFuBusy::IprAccess                    0      0.00%    100.00% # attempts to use FU when none available (Count)
system.cpu.statFuBusy::InstPrefetch                 0      0.00%    100.00% # attempts to use FU when none available (Count)
system.cpu.statIssuedInstType_0::No_OpClass          701      0.52%      0.52% # Number of instructions issued per FU type, per thread (Count)
system.cpu.statIssuedInstType_0::IntAlu        127016     95.10%     95.62% # Number of instructions issued per FU type, per thread (Count)
system.cpu.statIssuedInstType_0::IntMult            5      0.00%     95.62% # Number of instructions issued per FU type, per thread (Count)
system.cpu.statIssuedInstType_0::IntDiv            22      0.02%     95.64% # Number of instructions issued per FU type, per thread (Count)
system.cpu.statIssuedInstType_0::FloatAdd          136      0.10%     95.74% # Number of instructions issued per FU type, per thread (Count)
system.cpu.statIssuedInstType_0::FloatCmp            0      0.00%     95.74% # Number of instructions issued per FU type, per thread (Count)
system.cpu.statIssuedInstType_0::FloatCvt            0      0.00%     95.74% # Number of instructions issued per FU type, per thread (Count)
system.cpu.statIssuedInstType_0::FloatMult            0      0.00%     95.74% # Number of instructions issued per FU type, per thread (Count)
system.cpu.statIssuedInstType_0::FloatMultAcc            0      0.00%     95.74% # Number of instructions issued per FU type, per thread (Count)
system.cpu.statIssuedInstType_0::FloatDiv            0      0.00%     95.74% # Number of instructions issued per FU type, per thread (Count)
system.cpu.statIssuedInstType_0::FloatMisc            0      0.00%     95.74% # Number of instructions issued per FU type, per thread (Count)
system.cpu.statIssuedInstType_0::FloatSqrt            0      0.00%     95.74% # Number of instructions issued per FU type, per thread (Count)
system.cpu.statIssuedInstType_0::SimdAdd            0      0.00%     95.74% # Number of instructions issued per FU type, per thread (Count)
system.cpu.statIssuedInstType_0::SimdAddAcc            0      0.00%     95.74% # Number of instructions issued per FU type, per thread (Count)
system.cpu.statIssuedInstType_0::SimdAlu          160      0.12%     95.86% # Number of instructions issued per FU type, per thread (Count)
system.cpu.statIssuedInstType_0::SimdCmp            0      0.00%     95.86% # Number of instructions issued per FU type, per thread (Count)
system.cpu.statIssuedInstType_0::SimdCvt           49      0.04%     95.90% # Number of instructions issued per FU type, per thread (Count)
system.cpu.statIssuedInstType_0::SimdMisc          218      0.16%     96.06% # Number of instructions issued per FU type, per thread (Count)
system.cpu.statIssuedInstType_0::SimdMult            0      0.00%     96.06% # Number of instructions issued per FU type, per thread (Count)
system.cpu.statIssuedInstType_0::SimdMultAcc            0      0.00%     96.06% # Number of instructions issued per FU type, per thread (Count)
system.cpu.statIssuedInstType_0::SimdShift            0      0.00%     96.06% # Number of instructions issued per FU type, per thread (Count)
system.cpu.statIssuedInstType_0::SimdShiftAcc            0      0.00%     96.06% # Number of instructions issued per FU type, per thread (Count)
system.cpu.statIssuedInstType_0::SimdDiv            0      0.00%     96.06% # Number of instructions issued per FU type, per thread (Count)
system.cpu.statIssuedInstType_0::SimdSqrt            0      0.00%     96.06% # Number of instructions issued per FU type, per thread (Count)
system.cpu.statIssuedInstType_0::SimdFloatAdd            0      0.00%     96.06% # Number of instructions issued per FU type, per thread (Count)
system.cpu.statIssuedInstType_0::SimdFloatAlu            0      0.00%     96.06% # Number of instructions issued per FU type, per thread (Count)
system.cpu.statIssuedInstType_0::SimdFloatCmp            0      0.00%     96.06% # Number of instructions issued per FU type, per thread (Count)
system.cpu.statIssuedInstType_0::SimdFloatCvt            0      0.00%     96.06% # Number of instructions issued per FU type, per thread (Count)
system.cpu.statIssuedInstType_0::SimdFloatDiv            0      0.00%     96.06% # Number of instructions issued per FU type, per thread (Count)
system.cpu.statIssuedInstType_0::SimdFloatMisc            0      0.00%     96.06% # Number of instructions issued per FU type, per thread (Count)
system.cpu.statIssuedInstType_0::SimdFloatMult            0      0.00%     96.06% # Number of instructions issued per FU type, per thread (Count)
system.cpu.statIssuedInstType_0::SimdFloatMultAcc            0      0.00%     96.06% # Number of instructions issued per FU type, per thread (Count)
system.cpu.statIssuedInstType_0::SimdFloatSqrt            0      0.00%     96.06% # Number of instructions issued per FU type, per thread (Count)
system.cpu.statIssuedInstType_0::SimdReduceAdd            0      0.00%     96.06% # Number of instructions issued per FU type, per thread (Count)
system.cpu.statIssuedInstType_0::SimdReduceAlu            0      0.00%     96.06% # Number of instructions issued per FU type, per thread (Count)
system.cpu.statIssuedInstType_0::SimdReduceCmp            0      0.00%     96.06% # Number of instructions issued per FU type, per thread (Count)
system.cpu.statIssuedInstType_0::SimdFloatReduceAdd            0      0.00%     96.06% # Number of instructions issued per FU type, per thread (Count)
system.cpu.statIssuedInstType_0::SimdFloatReduceCmp            0      0.00%     96.06% # Number of instructions issued per FU type, per thread (Count)
system.cpu.statIssuedInstType_0::SimdAes            0      0.00%     96.06% # Number of instructions issued per FU type, per thread (Count)
system.cpu.statIssuedInstType_0::SimdAesMix            0      0.00%     96.06% # Number of instructions issued per FU type, per thread (Count)
system.cpu.statIssuedInstType_0::SimdSha1Hash            0      0.00%     96.06% # Number of instructions issued per FU type, per thread (Count)
system.cpu.statIssuedInstType_0::SimdSha1Hash2            0      0.00%     96.06% # Number of instructions issued per FU type, per thread (Count)
system.cpu.statIssuedInstType_0::SimdSha256Hash            0      0.00%     96.06% # Number of instructions issued per FU type, per thread (Count)
system.cpu.statIssuedInstType_0::SimdSha256Hash2            0      0.00%     96.06% # Number of instructions issued per FU type, per thread (Count)
system.cpu.statIssuedInstType_0::SimdShaSigma2            0      0.00%     96.06% # Number of instructions issued per FU type, per thread (Count)
system.cpu.statIssuedInstType_0::SimdShaSigma3            0      0.00%     96.06% # Number of instructions issued per FU type, per thread (Count)
system.cpu.statIssuedInstType_0::SimdPredAlu            0      0.00%     96.06% # Number of instructions issued per FU type, per thread (Count)
system.cpu.statIssuedInstType_0::MemRead         2877      2.15%     98.22% # Number of instructions issued per FU type, per thread (Count)
system.cpu.statIssuedInstType_0::MemWrite         1777      1.33%     99.55% # Number of instructions issued per FU type, per thread (Count)
system.cpu.statIssuedInstType_0::FloatMemRead           70      0.05%     99.60% # Number of instructions issued per FU type, per thread (Count)
system.cpu.statIssuedInstType_0::FloatMemWrite          536      0.40%    100.00% # Number of instructions issued per FU type, per thread (Count)
system.cpu.statIssuedInstType_0::IprAccess            0      0.00%    100.00% # Number of instructions issued per FU type, per thread (Count)
system.cpu.statIssuedInstType_0::InstPrefetch            0      0.00%    100.00% # Number of instructions issued per FU type, per thread (Count)
system.cpu.statIssuedInstType_0::total         133567                       # Number of instructions issued per FU type, per thread (Count)
system.cpu.issueRate                         1.582529                       # Inst issue rate ((Count/Cycle))
system.cpu.fuBusy                                 324                       # FU busy when requested (Count)
system.cpu.fuBusyRate                        0.002426                       # FU busy rate (busy events/executed inst) ((Count/Count))
system.cpu.intInstQueueReads                   328116                       # Number of integer instruction queue reads (Count)
system.cpu.intInstQueueWrites                  148958                       # Number of integer instruction queue writes (Count)
system.cpu.intInstQueueWakeupAccesses          130560                       # Number of integer instruction queue wakeup accesses (Count)
system.cpu.fpInstQueueReads                      2646                       # Number of floating instruction queue reads (Count)
system.cpu.fpInstQueueWrites                     1513                       # Number of floating instruction queue writes (Count)
system.cpu.fpInstQueueWakeupAccesses             1286                       # Number of floating instruction queue wakeup accesses (Count)
system.cpu.vecInstQueueReads                        0                       # Number of vector instruction queue reads (Count)
system.cpu.vecInstQueueWrites                       0                       # Number of vector instruction queue writes (Count)
system.cpu.vecInstQueueWakeupAccesses               0                       # Number of vector instruction queue wakeup accesses (Count)
system.cpu.intAluAccesses                      131854                       # Number of integer alu accesses (Count)
system.cpu.fpAluAccesses                         1336                       # Number of floating point alu accesses (Count)
system.cpu.vecAluAccesses                           0                       # Number of vector alu accesses (Count)
system.cpu.idleCycles                               0                       # Number of cycles IEW is idle (Cycle)
system.cpu.squashCycles                           653                       # Number of cycles IEW is squashing (Cycle)
system.cpu.blockCycles                           2012                       # Number of cycles IEW is blocking (Cycle)
system.cpu.unblockCycles                          874                       # Number of cycles IEW is unblocking (Cycle)
system.cpu.dispatchedInsts                     136704                       # Number of instructions dispatched to IQ (Count)
system.cpu.dispSquashedInsts                       27                       # Number of squashed instructions skipped by dispatch (Count)
system.cpu.dispLoadInsts                         3159                       # Number of dispatched load instructions (Count)
system.cpu.dispStoreInsts                        2694                       # Number of dispatched store instructions (Count)
system.cpu.dispNonSpecInsts                         1                       # Number of dispatched non-speculative instructions (Count)
system.cpu.iqFullEvents                            12                       # Number of times the IQ has become full, causing a stall (Count)
system.cpu.lsqFullEvents                          859                       # Number of times the LSQ has become full, causing a stall (Count)
system.cpu.memOrderViolationEvents                 12                       # Number of memory order violations (Count)
system.cpu.predictedTakenIncorrect                 85                       # Number of branches that were predicted taken incorrectly (Count)
system.cpu.predictedNotTakenIncorrect             656                       # Number of branches that were predicted not taken incorrectly (Count)
system.cpu.branchMispredicts                      741                       # Number of branch mispredicts detected at execute (Count)
system.cpu.numInsts                            132591                       # Number of executed instructions (Count)
system.cpu.numLoadInsts                          2779                       # Number of load instructions executed (Count)
system.cpu.numSquashedInsts                       976                       # Number of squashed instructions skipped in execute (Count)
system.cpu.numSwp                                   0                       # Number of swp insts executed (Count)
system.cpu.numNop                                   0                       # Number of nop insts executed (Count)
system.cpu.numRefs                               5008                       # Number of memory reference insts executed (Count)
system.cpu.numBranches                          18924                       # Number of branches executed (Count)
system.cpu.numStoreInsts                         2229                       # Number of stores executed (Count)
system.cpu.numRate                           1.570965                       # Inst execution rate ((Count/Cycle))
system.cpu.instsToCommit                       132247                       # Cumulative count of insts sent to commit (Count)
system.cpu.writebackCount                      131846                       # Cumulative count of insts written-back (Count)
system.cpu.producerInst                         91054                       # Number of instructions producing a value (Count)
system.cpu.consumerInst                        125193                       # Number of instructions consuming a value (Count)
system.cpu.wbRate                            1.562138                       # Insts written-back per cycle ((Count/Cycle))
system.cpu.wbFanout                          0.727309                       # Average fanout of values written-back ((Count/Count))
system.cpu.timesIdled                             297                       # Number of times that the entire CPU went into an idle state and unscheduled itself (Count)
system.cpu.idleCycles                           21153                       # Total number of cycles that the CPU has spent unscheduled due to idling (Cycle)
system.cpu.committedInsts                       65836                       # Number of Instructions Simulated (Count)
system.cpu.committedOps                        122942                       # Number of Ops (including micro ops) Simulated (Count)
system.cpu.cpi                               1.281989                       # CPI: Cycles Per Instruction ((Cycle/Count))
system.cpu.totalCpi                          1.281989                       # CPI: Total CPI of All Threads ((Cycle/Count))
system.cpu.ipc                               0.780038                       # IPC: Instructions Per Cycle ((Count/Cycle))
system.cpu.totalIpc                          0.780038                       # IPC: Total IPC of All Threads ((Count/Cycle))
system.cpu.intRegfileReads                     165984                       # Number of integer regfile reads (Count)
system.cpu.intRegfileWrites                    109656                       # Number of integer regfile writes (Count)
system.cpu.fpRegfileReads                        1542                       # Number of floating regfile reads (Count)
system.cpu.fpRegfileWrites                        719                       # Number of floating regfile writes (Count)
system.cpu.ccRegfileReads                       93442                       # number of cc regfile reads (Count)
system.cpu.ccRegfileWrites                      56661                       # number of cc regfile writes (Count)
system.cpu.miscRegfileReads                     43917                       # number of misc regfile reads (Count)
system.cpu.MemDepUnit__0.insertedLoads           3159                       # Number of loads inserted to the mem dependence unit. (Count)
system.cpu.MemDepUnit__0.insertedStores          2694                       # Number of stores inserted to the mem dependence unit. (Count)
system.cpu.MemDepUnit__0.conflictingLoads           24                       # Number of conflicting loads. (Count)
system.cpu.MemDepUnit__0.conflictingStores            1                       # Number of conflicting stores. (Count)
system.cpu.MemDepUnit__1.insertedLoads              0                       # Number of loads inserted to the mem dependence unit. (Count)
system.cpu.MemDepUnit__1.insertedStores             0                       # Number of stores inserted to the mem dependence unit. (Count)
system.cpu.MemDepUnit__1.conflictingLoads            0                       # Number of conflicting loads. (Count)
system.cpu.MemDepUnit__1.conflictingStores            0                       # Number of conflicting stores. (Count)
system.cpu.MemDepUnit__2.insertedLoads              0                       # Number of loads inserted to the mem dependence unit. (Count)
system.cpu.MemDepUnit__2.insertedStores             0                       # Number of stores inserted to the mem dependence unit. (Count)
system.cpu.MemDepUnit__2.conflictingLoads            0                       # Number of conflicting loads. (Count)
system.cpu.MemDepUnit__2.conflictingStores            0                       # Number of conflicting stores. (Count)
system.cpu.MemDepUnit__3.insertedLoads              0                       # Number of loads inserted to the mem dependence unit. (Count)
system.cpu.MemDepUnit__3.insertedStores             0                       # Number of stores inserted to the mem dependence unit. (Count)
system.cpu.MemDepUnit__3.conflictingLoads            0                       # Number of conflicting loads. (Count)
system.cpu.MemDepUnit__3.conflictingStores            0                       # Number of conflicting stores. (Count)
system.cpu.branchPred.lookups                   20714                       # Number of BP lookups (Count)
system.cpu.branchPred.condPredicted             19453                       # Number of conditional branches predicted (Count)
system.cpu.branchPred.condIncorrect               739                       # Number of conditional branches incorrect (Count)
system.cpu.branchPred.BTBLookups                10205                       # Number of BTB lookups (Count)
system.cpu.branchPred.BTBHits                    9529                       # Number of BTB hits (Count)
system.cpu.branchPred.BTBHitRatio            0.933758                       # BTB Hit Ratio (Ratio)
system.cpu.branchPred.RASUsed                     283                       # Number of times the RAS was used to get a target. (Count)
system.cpu.branchPred.RASIncorrect                  0                       # Number of incorrect RAS predictions. (Count)
system.cpu.branchPred.indirectLookups             342                       # Number of indirect predictor lookups. (Count)
system.cpu.branchPred.indirectHits                 16                       # Number of indirect target hits. (Count)
system.cpu.branchPred.indirectMisses              326                       # Number of indirect misses. (Count)
system.cpu.branchPred.indirectMispredicted           94                       # Number of mispredicted indirect branches. (Count)
system.cpu.commit.commitSquashedInsts           13648                       # The number of squashed insts skipped by commit (Count)
system.cpu.commit.branchMispredicts               629                       # The number of times a branch was mispredicted (Count)
system.cpu.commit.numCommittedDist::samples        61061                       # Number of insts commited each cycle (Count)
system.cpu.commit.numCommittedDist::mean     2.013429                       # Number of insts commited each cycle (Count)
system.cpu.commit.numCommittedDist::stdev     2.144184                       # Number of insts commited each cycle (Count)
system.cpu.commit.numCommittedDist::underflows            0      0.00%      0.00% # Number of insts commited each cycle (Count)
system.cpu.commit.numCommittedDist::0           23127     37.88%     37.88% # Number of insts commited each cycle (Count)
system.cpu.commit.numCommittedDist::1            9634     15.78%     53.65% # Number of insts commited each cycle (Count)
system.cpu.commit.numCommittedDist::2             962      1.58%     55.23% # Number of insts commited each cycle (Count)
system.cpu.commit.numCommittedDist::3           17475     28.62%     83.85% # Number of insts commited each cycle (Count)
system.cpu.commit.numCommittedDist::4             567      0.93%     84.78% # Number of insts commited each cycle (Count)
system.cpu.commit.numCommittedDist::5             356      0.58%     85.36% # Number of insts commited each cycle (Count)
system.cpu.commit.numCommittedDist::6            8253     13.52%     98.87% # Number of insts commited each cycle (Count)
system.cpu.commit.numCommittedDist::7             103      0.17%     99.04% # Number of insts commited each cycle (Count)
system.cpu.commit.numCommittedDist::8             584      0.96%    100.00% # Number of insts commited each cycle (Count)
system.cpu.commit.numCommittedDist::overflows            0      0.00%    100.00% # Number of insts commited each cycle (Count)
system.cpu.commit.numCommittedDist::min_value            0                       # Number of insts commited each cycle (Count)
system.cpu.commit.numCommittedDist::max_value            8                       # Number of insts commited each cycle (Count)
system.cpu.commit.numCommittedDist::total        61061                       # Number of insts commited each cycle (Count)
system.cpu.commit.instsCommitted                65836                       # Number of instructions committed (Count)
system.cpu.commit.opsCommitted                 122942                       # Number of ops (including micro ops) committed (Count)
system.cpu.commit.memRefs                        3186                       # Number of memory references committed (Count)
system.cpu.commit.loads                          1550                       # Number of loads committed (Count)
system.cpu.commit.amos                              0                       # Number of atomic instructions committed (Count)
system.cpu.commit.membars                           0                       # Number of memory barriers committed (Count)
system.cpu.commit.branches                      18159                       # Number of branches committed (Count)
system.cpu.commit.vectorInstructions                0                       # Number of committed Vector instructions. (Count)
system.cpu.commit.floating                       1149                       # Number of committed floating point instructions. (Count)
system.cpu.commit.integer                      122161                       # Number of committed integer instructions. (Count)
system.cpu.commit.functionCalls                   150                       # Number of function calls committed. (Count)
system.cpu.commit.committedInstType_0::No_OpClass          226      0.18%      0.18% # Class of committed instruction (Count)
system.cpu.commit.committedInstType_0::IntAlu       119014     96.80%     96.99% # Class of committed instruction (Count)
system.cpu.commit.committedInstType_0::IntMult            5      0.00%     96.99% # Class of committed instruction (Count)
system.cpu.commit.committedInstType_0::IntDiv           21      0.02%     97.01% # Class of committed instruction (Count)
system.cpu.commit.committedInstType_0::FloatAdd          135      0.11%     97.12% # Class of committed instruction (Count)
system.cpu.commit.committedInstType_0::FloatCmp            0      0.00%     97.12% # Class of committed instruction (Count)
system.cpu.commit.committedInstType_0::FloatCvt            0      0.00%     97.12% # Class of committed instruction (Count)
system.cpu.commit.committedInstType_0::FloatMult            0      0.00%     97.12% # Class of committed instruction (Count)
system.cpu.commit.committedInstType_0::FloatMultAcc            0      0.00%     97.12% # Class of committed instruction (Count)
system.cpu.commit.committedInstType_0::FloatDiv            0      0.00%     97.12% # Class of committed instruction (Count)
system.cpu.commit.committedInstType_0::FloatMisc            0      0.00%     97.12% # Class of committed instruction (Count)
system.cpu.commit.committedInstType_0::FloatSqrt            0      0.00%     97.12% # Class of committed instruction (Count)
system.cpu.commit.committedInstType_0::SimdAdd            0      0.00%     97.12% # Class of committed instruction (Count)
system.cpu.commit.committedInstType_0::SimdAddAcc            0      0.00%     97.12% # Class of committed instruction (Count)
system.cpu.commit.committedInstType_0::SimdAlu           94      0.08%     97.20% # Class of committed instruction (Count)
system.cpu.commit.committedInstType_0::SimdCmp            0      0.00%     97.20% # Class of committed instruction (Count)
system.cpu.commit.committedInstType_0::SimdCvt           46      0.04%     97.23% # Class of committed instruction (Count)
system.cpu.commit.committedInstType_0::SimdMisc          215      0.17%     97.41% # Class of committed instruction (Count)
system.cpu.commit.committedInstType_0::SimdMult            0      0.00%     97.41% # Class of committed instruction (Count)
system.cpu.commit.committedInstType_0::SimdMultAcc            0      0.00%     97.41% # Class of committed instruction (Count)
system.cpu.commit.committedInstType_0::SimdShift            0      0.00%     97.41% # Class of committed instruction (Count)
system.cpu.commit.committedInstType_0::SimdShiftAcc            0      0.00%     97.41% # Class of committed instruction (Count)
system.cpu.commit.committedInstType_0::SimdDiv            0      0.00%     97.41% # Class of committed instruction (Count)
system.cpu.commit.committedInstType_0::SimdSqrt            0      0.00%     97.41% # Class of committed instruction (Count)
system.cpu.commit.committedInstType_0::SimdFloatAdd            0      0.00%     97.41% # Class of committed instruction (Count)
system.cpu.commit.committedInstType_0::SimdFloatAlu            0      0.00%     97.41% # Class of committed instruction (Count)
system.cpu.commit.committedInstType_0::SimdFloatCmp            0      0.00%     97.41% # Class of committed instruction (Count)
system.cpu.commit.committedInstType_0::SimdFloatCvt            0      0.00%     97.41% # Class of committed instruction (Count)
system.cpu.commit.committedInstType_0::SimdFloatDiv            0      0.00%     97.41% # Class of committed instruction (Count)
system.cpu.commit.committedInstType_0::SimdFloatMisc            0      0.00%     97.41% # Class of committed instruction (Count)
system.cpu.commit.committedInstType_0::SimdFloatMult            0      0.00%     97.41% # Class of committed instruction (Count)
system.cpu.commit.committedInstType_0::SimdFloatMultAcc            0      0.00%     97.41% # Class of committed instruction (Count)
system.cpu.commit.committedInstType_0::SimdFloatSqrt            0      0.00%     97.41% # Class of committed instruction (Count)
system.cpu.commit.committedInstType_0::SimdReduceAdd            0      0.00%     97.41% # Class of committed instruction (Count)
system.cpu.commit.committedInstType_0::SimdReduceAlu            0      0.00%     97.41% # Class of committed instruction (Count)
system.cpu.commit.committedInstType_0::SimdReduceCmp            0      0.00%     97.41% # Class of committed instruction (Count)
system.cpu.commit.committedInstType_0::SimdFloatReduceAdd            0      0.00%     97.41% # Class of committed instruction (Count)
system.cpu.commit.committedInstType_0::SimdFloatReduceCmp            0      0.00%     97.41% # Class of committed instruction (Count)
system.cpu.commit.committedInstType_0::SimdAes            0      0.00%     97.41% # Class of committed instruction (Count)
system.cpu.commit.committedInstType_0::SimdAesMix            0      0.00%     97.41% # Class of committed instruction (Count)
system.cpu.commit.committedInstType_0::SimdSha1Hash            0      0.00%     97.41% # Class of committed instruction (Count)
system.cpu.commit.committedInstType_0::SimdSha1Hash2            0      0.00%     97.41% # Class of committed instruction (Count)
system.cpu.commit.committedInstType_0::SimdSha256Hash            0      0.00%     97.41% # Class of committed instruction (Count)
system.cpu.commit.committedInstType_0::SimdSha256Hash2            0      0.00%     97.41% # Class of committed instruction (Count)
system.cpu.commit.committedInstType_0::SimdShaSigma2            0      0.00%     97.41% # Class of committed instruction (Count)
system.cpu.commit.committedInstType_0::SimdShaSigma3            0      0.00%     97.41% # Class of committed instruction (Count)
system.cpu.commit.committedInstType_0::SimdPredAlu            0      0.00%     97.41% # Class of committed instruction (Count)
system.cpu.commit.committedInstType_0::MemRead         1496      1.22%     98.63% # Class of committed instruction (Count)
system.cpu.commit.committedInstType_0::MemWrite         1170      0.95%     99.58% # Class of committed instruction (Count)
system.cpu.commit.committedInstType_0::FloatMemRead           54      0.04%     99.62% # Class of committed instruction (Count)
system.cpu.commit.committedInstType_0::FloatMemWrite          466      0.38%    100.00% # Class of committed instruction (Count)
system.cpu.commit.committedInstType_0::IprAccess            0      0.00%    100.00% # Class of committed instruction (Count)
system.cpu.commit.committedInstType_0::InstPrefetch            0      0.00%    100.00% # Class of committed instruction (Count)
system.cpu.commit.committedInstType_0::total       122942                       # Class of committed instruction (Count)
system.cpu.commit.commitEligibleSamples           584                       # number cycles where commit BW limit reached (Cycle)
system.cpu.dcache.demandHits::cpu.data           3683                       # number of demand (read+write) hits (Count)
system.cpu.dcache.demandHits::total              3683                       # number of demand (read+write) hits (Count)
system.cpu.dcache.overallHits::cpu.data          3683                       # number of overall hits (Count)
system.cpu.dcache.overallHits::total             3683                       # number of overall hits (Count)
system.cpu.dcache.demandMisses::cpu.data          412                       # number of demand (read+write) misses (Count)
system.cpu.dcache.demandMisses::total             412                       # number of demand (read+write) misses (Count)
system.cpu.dcache.overallMisses::cpu.data          412                       # number of overall misses (Count)
system.cpu.dcache.overallMisses::total            412                       # number of overall misses (Count)
system.cpu.dcache.demandMissLatency::cpu.data     41495999                       # number of demand (read+write) miss ticks (Tick)
system.cpu.dcache.demandMissLatency::total     41495999                       # number of demand (read+write) miss ticks (Tick)
system.cpu.dcache.overallMissLatency::cpu.data     41495999                       # number of overall miss ticks (Tick)
system.cpu.dcache.overallMissLatency::total     41495999                       # number of overall miss ticks (Tick)
system.cpu.dcache.demandAccesses::cpu.data         4095                       # number of demand (read+write) accesses (Count)
system.cpu.dcache.demandAccesses::total          4095                       # number of demand (read+write) accesses (Count)
system.cpu.dcache.overallAccesses::cpu.data         4095                       # number of overall (read+write) accesses (Count)
system.cpu.dcache.overallAccesses::total         4095                       # number of overall (read+write) accesses (Count)
system.cpu.dcache.demandMissRate::cpu.data     0.100611                       # miss rate for demand accesses (Ratio)
system.cpu.dcache.demandMissRate::total      0.100611                       # miss rate for demand accesses (Ratio)
system.cpu.dcache.overallMissRate::cpu.data     0.100611                       # miss rate for overall accesses (Ratio)
system.cpu.dcache.overallMissRate::total     0.100611                       # miss rate for overall accesses (Ratio)
system.cpu.dcache.demandAvgMissLatency::cpu.data 100718.444175                       # average overall miss latency ((Cycle/Count))
system.cpu.dcache.demandAvgMissLatency::total 100718.444175                       # average overall miss latency ((Cycle/Count))
system.cpu.dcache.overallAvgMissLatency::cpu.data 100718.444175                       # average overall miss latency ((Cycle/Count))
system.cpu.dcache.overallAvgMissLatency::total 100718.444175                       # average overall miss latency ((Cycle/Count))
system.cpu.dcache.blockedCycles::no_mshrs          448                       # number of cycles access was blocked (Cycle)
system.cpu.dcache.blockedCycles::no_targets            0                       # number of cycles access was blocked (Cycle)
system.cpu.dcache.blockedCauses::no_mshrs           16                       # number of times access was blocked (Count)
system.cpu.dcache.blockedCauses::no_targets            0                       # number of times access was blocked (Count)
system.cpu.dcache.avgBlocked::no_mshrs             28                       # average number of cycles each access was blocked ((Cycle/Count))
system.cpu.dcache.avgBlocked::no_targets          nan                       # average number of cycles each access was blocked ((Cycle/Count))
system.cpu.dcache.demandMshrHits::cpu.data          146                       # number of demand (read+write) MSHR hits (Count)
system.cpu.dcache.demandMshrHits::total           146                       # number of demand (read+write) MSHR hits (Count)
system.cpu.dcache.overallMshrHits::cpu.data          146                       # number of overall MSHR hits (Count)
system.cpu.dcache.overallMshrHits::total          146                       # number of overall MSHR hits (Count)
system.cpu.dcache.demandMshrMisses::cpu.data          266                       # number of demand (read+write) MSHR misses (Count)
system.cpu.dcache.demandMshrMisses::total          266                       # number of demand (read+write) MSHR misses (Count)
system.cpu.dcache.overallMshrMisses::cpu.data          266                       # number of overall MSHR misses (Count)
system.cpu.dcache.overallMshrMisses::total          266                       # number of overall MSHR misses (Count)
system.cpu.dcache.demandMshrMissLatency::cpu.data     27884999                       # number of demand (read+write) MSHR miss ticks (Tick)
system.cpu.dcache.demandMshrMissLatency::total     27884999                       # number of demand (read+write) MSHR miss ticks (Tick)
system.cpu.dcache.overallMshrMissLatency::cpu.data     27884999                       # number of overall MSHR miss ticks (Tick)
system.cpu.dcache.overallMshrMissLatency::total     27884999                       # number of overall MSHR miss ticks (Tick)
system.cpu.dcache.demandMshrMissRate::cpu.data     0.064957                       # mshr miss ratio for demand accesses (Ratio)
system.cpu.dcache.demandMshrMissRate::total     0.064957                       # mshr miss ratio for demand accesses (Ratio)
system.cpu.dcache.overallMshrMissRate::cpu.data     0.064957                       # mshr miss ratio for overall accesses (Ratio)
system.cpu.dcache.overallMshrMissRate::total     0.064957                       # mshr miss ratio for overall accesses (Ratio)
system.cpu.dcache.demandAvgMshrMissLatency::cpu.data 104830.823308                       # average overall mshr miss latency ((Cycle/Count))
system.cpu.dcache.demandAvgMshrMissLatency::total 104830.823308                       # average overall mshr miss latency ((Cycle/Count))
system.cpu.dcache.overallAvgMshrMissLatency::cpu.data 104830.823308                       # average overall mshr miss latency ((Cycle/Count))
system.cpu.dcache.overallAvgMshrMissLatency::total 104830.823308                       # average overall mshr miss latency ((Cycle/Count))
system.cpu.dcache.replacements                      0                       # number of replacements (Count)
system.cpu.dcache.ReadReq.hits::cpu.data         2191                       # number of ReadReq hits (Count)
system.cpu.dcache.ReadReq.hits::total            2191                       # number of ReadReq hits (Count)
system.cpu.dcache.ReadReq.misses::cpu.data          267                       # number of ReadReq misses (Count)
system.cpu.dcache.ReadReq.misses::total           267                       # number of ReadReq misses (Count)
system.cpu.dcache.ReadReq.missLatency::cpu.data     27420000                       # number of ReadReq miss ticks (Tick)
system.cpu.dcache.ReadReq.missLatency::total     27420000                       # number of ReadReq miss ticks (Tick)
system.cpu.dcache.ReadReq.accesses::cpu.data         2458                       # number of ReadReq accesses(hits+misses) (Count)
system.cpu.dcache.ReadReq.accesses::total         2458                       # number of ReadReq accesses(hits+misses) (Count)
system.cpu.dcache.ReadReq.missRate::cpu.data     0.108625                       # miss rate for ReadReq accesses (Ratio)
system.cpu.dcache.ReadReq.missRate::total     0.108625                       # miss rate for ReadReq accesses (Ratio)
system.cpu.dcache.ReadReq.avgMissLatency::cpu.data 102696.629213                       # average ReadReq miss latency ((Tick/Count))
system.cpu.dcache.ReadReq.avgMissLatency::total 102696.629213                       # average ReadReq miss latency ((Tick/Count))
system.cpu.dcache.ReadReq.mshrHits::cpu.data          144                       # number of ReadReq MSHR hits (Count)
system.cpu.dcache.ReadReq.mshrHits::total          144                       # number of ReadReq MSHR hits (Count)
system.cpu.dcache.ReadReq.mshrMisses::cpu.data          123                       # number of ReadReq MSHR misses (Count)
system.cpu.dcache.ReadReq.mshrMisses::total          123                       # number of ReadReq MSHR misses (Count)
system.cpu.dcache.ReadReq.mshrMissLatency::cpu.data     14099000                       # number of ReadReq MSHR miss ticks (Tick)
system.cpu.dcache.ReadReq.mshrMissLatency::total     14099000                       # number of ReadReq MSHR miss ticks (Tick)
system.cpu.dcache.ReadReq.mshrMissRate::cpu.data     0.050041                       # mshr miss rate for ReadReq accesses (Ratio)
system.cpu.dcache.ReadReq.mshrMissRate::total     0.050041                       # mshr miss rate for ReadReq accesses (Ratio)
system.cpu.dcache.ReadReq.avgMshrMissLatency::cpu.data 114626.016260                       # average ReadReq mshr miss latency ((Tick/Count))
system.cpu.dcache.ReadReq.avgMshrMissLatency::total 114626.016260                       # average ReadReq mshr miss latency ((Tick/Count))
system.cpu.dcache.WriteReq.hits::cpu.data         1492                       # number of WriteReq hits (Count)
system.cpu.dcache.WriteReq.hits::total           1492                       # number of WriteReq hits (Count)
system.cpu.dcache.WriteReq.misses::cpu.data          145                       # number of WriteReq misses (Count)
system.cpu.dcache.WriteReq.misses::total          145                       # number of WriteReq misses (Count)
system.cpu.dcache.WriteReq.missLatency::cpu.data     14075999                       # number of WriteReq miss ticks (Tick)
system.cpu.dcache.WriteReq.missLatency::total     14075999                       # number of WriteReq miss ticks (Tick)
system.cpu.dcache.WriteReq.accesses::cpu.data         1637                       # number of WriteReq accesses(hits+misses) (Count)
system.cpu.dcache.WriteReq.accesses::total         1637                       # number of WriteReq accesses(hits+misses) (Count)
system.cpu.dcache.WriteReq.missRate::cpu.data     0.088577                       # miss rate for WriteReq accesses (Ratio)
system.cpu.dcache.WriteReq.missRate::total     0.088577                       # miss rate for WriteReq accesses (Ratio)
system.cpu.dcache.WriteReq.avgMissLatency::cpu.data 97075.855172                       # average WriteReq miss latency ((Tick/Count))
system.cpu.dcache.WriteReq.avgMissLatency::total 97075.855172                       # average WriteReq miss latency ((Tick/Count))
system.cpu.dcache.WriteReq.mshrHits::cpu.data            2                       # number of WriteReq MSHR hits (Count)
system.cpu.dcache.WriteReq.mshrHits::total            2                       # number of WriteReq MSHR hits (Count)
system.cpu.dcache.WriteReq.mshrMisses::cpu.data          143                       # number of WriteReq MSHR misses (Count)
system.cpu.dcache.WriteReq.mshrMisses::total          143                       # number of WriteReq MSHR misses (Count)
system.cpu.dcache.WriteReq.mshrMissLatency::cpu.data     13785999                       # number of WriteReq MSHR miss ticks (Tick)
system.cpu.dcache.WriteReq.mshrMissLatency::total     13785999                       # number of WriteReq MSHR miss ticks (Tick)
system.cpu.dcache.WriteReq.mshrMissRate::cpu.data     0.087355                       # mshr miss rate for WriteReq accesses (Ratio)
system.cpu.dcache.WriteReq.mshrMissRate::total     0.087355                       # mshr miss rate for WriteReq accesses (Ratio)
system.cpu.dcache.WriteReq.avgMshrMissLatency::cpu.data 96405.587413                       # average WriteReq mshr miss latency ((Tick/Count))
system.cpu.dcache.WriteReq.avgMshrMissLatency::total 96405.587413                       # average WriteReq mshr miss latency ((Tick/Count))
system.cpu.dcache.power_state.pwrStateResidencyTicks::UNDEFINED     84400000                       # Cumulative time (in ticks) in various power states (Tick)
system.cpu.dcache.tags.tagsInUse           167.216885                       # Average ticks per tags in use ((Tick/Count))
system.cpu.dcache.tags.totalRefs                 3952                       # Total number of references to valid blocks. (Count)
system.cpu.dcache.tags.sampledRefs                237                       # Sample count of references to valid blocks. (Count)
system.cpu.dcache.tags.avgRefs              16.675105                       # Average number of references to valid blocks. ((Count/Count))
system.cpu.dcache.tags.warmupTick              225000                       # The tick when the warmup percentage was hit. (Tick)
system.cpu.dcache.tags.occupancies::cpu.data   167.216885                       # Average occupied blocks per tick, per requestor ((Count/Tick))
system.cpu.dcache.tags.avgOccs::cpu.data     0.163298                       # Average percentage of cache occupancy ((Ratio/Tick))
system.cpu.dcache.tags.avgOccs::total        0.163298                       # Average percentage of cache occupancy ((Ratio/Tick))
system.cpu.dcache.tags.occupanciesTaskId::1024          237                       # Occupied blocks per task id (Count)
system.cpu.dcache.tags.ageTaskId_1024::0           18                       # Occupied blocks per task id, per block age (Count)
system.cpu.dcache.tags.ageTaskId_1024::1          219                       # Occupied blocks per task id, per block age (Count)
system.cpu.dcache.tags.ratioOccsTaskId::1024     0.231445                       # Ratio of occupied blocks and all blocks, per task id (Ratio)
system.cpu.dcache.tags.tagAccesses               8427                       # Number of tag accesses (Count)
system.cpu.dcache.tags.dataAccesses              8427                       # Number of data accesses (Count)
system.cpu.dcache.tags.power_state.pwrStateResidencyTicks::UNDEFINED     84400000                       # Cumulative time (in ticks) in various power states (Tick)
system.cpu.decode.idleCycles                    32767                       # Number of cycles decode is idle (Cycle)
system.cpu.decode.blockedCycles                  8047                       # Number of cycles decode is blocked (Cycle)
system.cpu.decode.runCycles                     21263                       # Number of cycles decode is running (Cycle)
system.cpu.decode.unblockCycles                   518                       # Number of cycles decode is unblocking (Cycle)
system.cpu.decode.squashCycles                    653                       # Number of cycles decode is squashing (Cycle)
system.cpu.decode.branchResolved                 9659                       # Number of times decode resolved a branch (Count)
system.cpu.decode.branchMispred                   224                       # Number of times decode detected a branch misprediction (Count)
system.cpu.decode.decodedInsts                 141169                       # Number of instructions handled by decode (Count)
system.cpu.decode.squashedInsts                  1006                       # Number of squashed instructions handled by decode (Count)
system.cpu.fetch.icacheStallCycles              32846                       # Number of cycles fetch is stalled on an Icache miss (Cycle)
system.cpu.fetch.insts                          77624                       # Number of instructions fetch has processed (Count)
system.cpu.fetch.branches                       20714                       # Number of branches that fetch encountered (Count)
system.cpu.fetch.predictedBranches               9828                       # Number of branches that fetch has predicted taken (Count)
system.cpu.fetch.cycles                         28636                       # Number of cycles fetch has run and was not squashing or blocked (Cycle)
system.cpu.fetch.squashCycles                    1748                       # Number of cycles fetch has spent squashing (Cycle)
system.cpu.fetch.miscStallCycles                  127                       # Number of cycles fetch has spent waiting on interrupts, or bad addresses, or out of MSHRs (Cycle)
system.cpu.fetch.pendingTrapStallCycles           748                       # Number of stall cycles due to pending traps (Cycle)
system.cpu.fetch.pendingQuiesceStallCycles            2                       # Number of stall cycles due to pending quiesce instructions (Cycle)
system.cpu.fetch.icacheWaitRetryStallCycles           15                       # Number of stall cycles due to full MSHR (Cycle)
system.cpu.fetch.cacheLines                     19044                       # Number of cache lines fetched (Count)
system.cpu.fetch.icacheSquashes                   369                       # Number of outstanding Icache misses that were squashed (Count)
system.cpu.fetch.nisnDist::samples              63248                       # Number of instructions fetched each cycle (Total) (Count)
system.cpu.fetch.nisnDist::mean              2.292863                       # Number of instructions fetched each cycle (Total) (Count)
system.cpu.fetch.nisnDist::stdev             3.266450                       # Number of instructions fetched each cycle (Total) (Count)
system.cpu.fetch.nisnDist::underflows               0      0.00%      0.00% # Number of instructions fetched each cycle (Total) (Count)
system.cpu.fetch.nisnDist::0                    40891     64.65%     64.65% # Number of instructions fetched each cycle (Total) (Count)
system.cpu.fetch.nisnDist::1                      266      0.42%     65.07% # Number of instructions fetched each cycle (Total) (Count)
system.cpu.fetch.nisnDist::2                      284      0.45%     65.52% # Number of instructions fetched each cycle (Total) (Count)
system.cpu.fetch.nisnDist::3                      311      0.49%     66.01% # Number of instructions fetched each cycle (Total) (Count)
system.cpu.fetch.nisnDist::4                      519      0.82%     66.83% # Number of instructions fetched each cycle (Total) (Count)
system.cpu.fetch.nisnDist::5                     8545     13.51%     80.34% # Number of instructions fetched each cycle (Total) (Count)
system.cpu.fetch.nisnDist::6                      316      0.50%     80.84% # Number of instructions fetched each cycle (Total) (Count)
system.cpu.fetch.nisnDist::7                      373      0.59%     81.43% # Number of instructions fetched each cycle (Total) (Count)
system.cpu.fetch.nisnDist::8                    11743     18.57%    100.00% # Number of instructions fetched each cycle (Total) (Count)
system.cpu.fetch.nisnDist::overflows                0      0.00%    100.00% # Number of instructions fetched each cycle (Total) (Count)
system.cpu.fetch.nisnDist::min_value                0                       # Number of instructions fetched each cycle (Total) (Count)
system.cpu.fetch.nisnDist::max_value                8                       # Number of instructions fetched each cycle (Total) (Count)
system.cpu.fetch.nisnDist::total                63248                       # Number of instructions fetched each cycle (Total) (Count)
system.cpu.fetch.branchRate                  0.245424                       # Number of branch fetches per cycle (Ratio)
system.cpu.fetch.rate                        0.919705                       # Number of inst fetches per cycle ((Count/Cycle))
system.cpu.icache.demandHits::cpu.inst          18425                       # number of demand (read+write) hits (Count)
system.cpu.icache.demandHits::total             18425                       # number of demand (read+write) hits (Count)
system.cpu.icache.overallHits::cpu.inst         18425                       # number of overall hits (Count)
system.cpu.icache.overallHits::total            18425                       # number of overall hits (Count)
system.cpu.icache.demandMisses::cpu.inst          619                       # number of demand (read+write) misses (Count)
system.cpu.icache.demandMisses::total             619                       # number of demand (read+write) misses (Count)
system.cpu.icache.overallMisses::cpu.inst          619                       # number of overall misses (Count)
system.cpu.icache.overallMisses::total            619                       # number of overall misses (Count)
system.cpu.icache.demandMissLatency::cpu.inst     62055999                       # number of demand (read+write) miss ticks (Tick)
system.cpu.icache.demandMissLatency::total     62055999                       # number of demand (read+write) miss ticks (Tick)
system.cpu.icache.overallMissLatency::cpu.inst     62055999                       # number of overall miss ticks (Tick)
system.cpu.icache.overallMissLatency::total     62055999                       # number of overall miss ticks (Tick)
system.cpu.icache.demandAccesses::cpu.inst        19044                       # number of demand (read+write) accesses (Count)
system.cpu.icache.demandAccesses::total         19044                       # number of demand (read+write) accesses (Count)
system.cpu.icache.overallAccesses::cpu.inst        19044                       # number of overall (read+write) accesses (Count)
system.cpu.icache.overallAccesses::total        19044                       # number of overall (read+write) accesses (Count)
system.cpu.icache.demandMissRate::cpu.inst     0.032504                       # miss rate for demand accesses (Ratio)
system.cpu.icache.demandMissRate::total      0.032504                       # miss rate for demand accesses (Ratio)
system.cpu.icache.overallMissRate::cpu.inst     0.032504                       # miss rate for overall accesses (Ratio)
system.cpu.icache.overallMissRate::total     0.032504                       # miss rate for overall accesses (Ratio)
system.cpu.icache.demandAvgMissLatency::cpu.inst 100252.017771                       # average overall miss latency ((Cycle/Count))
system.cpu.icache.demandAvgMissLatency::total 100252.017771                       # average overall miss latency ((Cycle/Count))
system.cpu.icache.overallAvgMissLatency::cpu.inst 100252.017771                       # average overall miss latency ((Cycle/Count))
system.cpu.icache.overallAvgMissLatency::total 100252.017771                       # average overall miss latency ((Cycle/Count))
system.cpu.icache.blockedCycles::no_mshrs          267                       # number of cycles access was blocked (Cycle)
system.cpu.icache.blockedCycles::no_targets            0                       # number of cycles access was blocked (Cycle)
system.cpu.icache.blockedCauses::no_mshrs            6                       # number of times access was blocked (Count)
system.cpu.icache.blockedCauses::no_targets            0                       # number of times access was blocked (Count)
system.cpu.icache.avgBlocked::no_mshrs      44.500000                       # average number of cycles each access was blocked ((Cycle/Count))
system.cpu.icache.avgBlocked::no_targets          nan                       # average number of cycles each access was blocked ((Cycle/Count))
system.cpu.icache.demandMshrHits::cpu.inst          133                       # number of demand (read+write) MSHR hits (Count)
system.cpu.icache.demandMshrHits::total           133                       # number of demand (read+write) MSHR hits (Count)
system.cpu.icache.overallMshrHits::cpu.inst          133                       # number of overall MSHR hits (Count)
system.cpu.icache.overallMshrHits::total          133                       # number of overall MSHR hits (Count)
system.cpu.icache.demandMshrMisses::cpu.inst          486                       # number of demand (read+write) MSHR misses (Count)
system.cpu.icache.demandMshrMisses::total          486                       # number of demand (read+write) MSHR misses (Count)
system.cpu.icache.overallMshrMisses::cpu.inst          486                       # number of overall MSHR misses (Count)
system.cpu.icache.overallMshrMisses::total          486                       # number of overall MSHR misses (Count)
system.cpu.icache.demandMshrMissLatency::cpu.inst     50934999                       # number of demand (read+write) MSHR miss ticks (Tick)
system.cpu.icache.demandMshrMissLatency::total     50934999                       # number of demand (read+write) MSHR miss ticks (Tick)
system.cpu.icache.overallMshrMissLatency::cpu.inst     50934999                       # number of overall MSHR miss ticks (Tick)
system.cpu.icache.overallMshrMissLatency::total     50934999                       # number of overall MSHR miss ticks (Tick)
system.cpu.icache.demandMshrMissRate::cpu.inst     0.025520                       # mshr miss ratio for demand accesses (Ratio)
system.cpu.icache.demandMshrMissRate::total     0.025520                       # mshr miss ratio for demand accesses (Ratio)
system.cpu.icache.overallMshrMissRate::cpu.inst     0.025520                       # mshr miss ratio for overall accesses (Ratio)
system.cpu.icache.overallMshrMissRate::total     0.025520                       # mshr miss ratio for overall accesses (Ratio)
system.cpu.icache.demandAvgMshrMissLatency::cpu.inst 104804.524691                       # average overall mshr miss latency ((Cycle/Count))
system.cpu.icache.demandAvgMshrMissLatency::total 104804.524691                       # average overall mshr miss latency ((Cycle/Count))
system.cpu.icache.overallAvgMshrMissLatency::cpu.inst 104804.524691                       # average overall mshr miss latency ((Cycle/Count))
system.cpu.icache.overallAvgMshrMissLatency::total 104804.524691                       # average overall mshr miss latency ((Cycle/Count))
system.cpu.icache.replacements                    240                       # number of replacements (Count)
system.cpu.icache.ReadReq.hits::cpu.inst        18425                       # number of ReadReq hits (Count)
system.cpu.icache.ReadReq.hits::total           18425                       # number of ReadReq hits (Count)
system.cpu.icache.ReadReq.misses::cpu.inst          619                       # number of ReadReq misses (Count)
system.cpu.icache.ReadReq.misses::total           619                       # number of ReadReq misses (Count)
system.cpu.icache.ReadReq.missLatency::cpu.inst     62055999                       # number of ReadReq miss ticks (Tick)
system.cpu.icache.ReadReq.missLatency::total     62055999                       # number of ReadReq miss ticks (Tick)
system.cpu.icache.ReadReq.accesses::cpu.inst        19044                       # number of ReadReq accesses(hits+misses) (Count)
system.cpu.icache.ReadReq.accesses::total        19044                       # number of ReadReq accesses(hits+misses) (Count)
system.cpu.icache.ReadReq.missRate::cpu.inst     0.032504                       # miss rate for ReadReq accesses (Ratio)
system.cpu.icache.ReadReq.missRate::total     0.032504                       # miss rate for ReadReq accesses (Ratio)
system.cpu.icache.ReadReq.avgMissLatency::cpu.inst 100252.017771                       # average ReadReq miss latency ((Tick/Count))
system.cpu.icache.ReadReq.avgMissLatency::total 100252.017771                       # average ReadReq miss latency ((Tick/Count))
system.cpu.icache.ReadReq.mshrHits::cpu.inst          133                       # number of ReadReq MSHR hits (Count)
system.cpu.icache.ReadReq.mshrHits::total          133                       # number of ReadReq MSHR hits (Count)
system.cpu.icache.ReadReq.mshrMisses::cpu.inst          486                       # number of ReadReq MSHR misses (Count)
system.cpu.icache.ReadReq.mshrMisses::total          486                       # number of ReadReq MSHR misses (Count)
system.cpu.icache.ReadReq.mshrMissLatency::cpu.inst     50934999                       # number of ReadReq MSHR miss ticks (Tick)
system.cpu.icache.ReadReq.mshrMissLatency::total     50934999                       # number of ReadReq MSHR miss ticks (Tick)
system.cpu.icache.ReadReq.mshrMissRate::cpu.inst     0.025520                       # mshr miss rate for ReadReq accesses (Ratio)
system.cpu.icache.ReadReq.mshrMissRate::total     0.025520                       # mshr miss rate for ReadReq accesses (Ratio)
system.cpu.icache.ReadReq.avgMshrMissLatency::cpu.inst 104804.524691                       # average ReadReq mshr miss latency ((Tick/Count))
system.cpu.icache.ReadReq.avgMshrMissLatency::total 104804.524691                       # average ReadReq mshr miss latency ((Tick/Count))
system.cpu.icache.power_state.pwrStateResidencyTicks::UNDEFINED     84400000                       # Cumulative time (in ticks) in various power states (Tick)
system.cpu.icache.tags.tagsInUse           191.676825                       # Average ticks per tags in use ((Tick/Count))
system.cpu.icache.tags.totalRefs                18910                       # Total number of references to valid blocks. (Count)
system.cpu.icache.tags.sampledRefs                485                       # Sample count of references to valid blocks. (Count)
system.cpu.icache.tags.avgRefs              38.989691                       # Average number of references to valid blocks. ((Count/Count))
system.cpu.icache.tags.warmupTick              107000                       # The tick when the warmup percentage was hit. (Tick)
system.cpu.icache.tags.occupancies::cpu.inst   191.676825                       # Average occupied blocks per tick, per requestor ((Count/Tick))
system.cpu.icache.tags.avgOccs::cpu.inst     0.748738                       # Average percentage of cache occupancy ((Ratio/Tick))
system.cpu.icache.tags.avgOccs::total        0.748738                       # Average percentage of cache occupancy ((Ratio/Tick))
system.cpu.icache.tags.occupanciesTaskId::1024          245                       # Occupied blocks per task id (Count)
system.cpu.icache.tags.ageTaskId_1024::0           40                       # Occupied blocks per task id, per block age (Count)
system.cpu.icache.tags.ageTaskId_1024::1          205                       # Occupied blocks per task id, per block age (Count)
system.cpu.icache.tags.ratioOccsTaskId::1024     0.957031                       # Ratio of occupied blocks and all blocks, per task id (Ratio)
system.cpu.icache.tags.tagAccesses              38573                       # Number of tag accesses (Count)
system.cpu.icache.tags.dataAccesses             38573                       # Number of data accesses (Count)
system.cpu.icache.tags.power_state.pwrStateResidencyTicks::UNDEFINED     84400000                       # Cumulative time (in ticks) in various power states (Tick)
system.cpu.interrupts.clk_domain.clock          16000                       # Clock period in ticks (Tick)
system.cpu.lsq0.forwLoads                         207                       # Number of loads that had data forwarded from stores (Count)
system.cpu.lsq0.squashedLoads                    1609                       # Number of loads squashed (Count)
system.cpu.lsq0.ignoredResponses                    1                       # Number of memory responses ignored because the instruction is squashed (Count)
system.cpu.lsq0.memOrderViolation                  12                       # Number of memory ordering violations (Count)
system.cpu.lsq0.squashedStores                   1058                       # Number of stores squashed (Count)
system.cpu.lsq0.rescheduledLoads                    1                       # Number of loads that were rescheduled (Count)
system.cpu.lsq0.blockedByCache                     13                       # Number of times an access to memory failed due to the cache being blocked (Count)
system.cpu.lsq0.loadToUse::samples               1550                       # Distribution of cycle latency between the first time a load is issued and its completion (Unspecified)
system.cpu.lsq0.loadToUse::mean             12.625161                       # Distribution of cycle latency between the first time a load is issued and its completion (Unspecified)
system.cpu.lsq0.loadToUse::stdev            33.164605                       # Distribution of cycle latency between the first time a load is issued and its completion (Unspecified)
system.cpu.lsq0.loadToUse::0-9                   1409     90.90%     90.90% # Distribution of cycle latency between the first time a load is issued and its completion (Unspecified)
system.cpu.lsq0.loadToUse::10-19                    6      0.39%     91.29% # Distribution of cycle latency between the first time a load is issued and its completion (Unspecified)
system.cpu.lsq0.loadToUse::20-29                    6      0.39%     91.68% # Distribution of cycle latency between the first time a load is issued and its completion (Unspecified)
system.cpu.lsq0.loadToUse::30-39                    3      0.19%     91.87% # Distribution of cycle latency between the first time a load is issued and its completion (Unspecified)
system.cpu.lsq0.loadToUse::40-49                    1      0.06%     91.94% # Distribution of cycle latency between the first time a load is issued and its completion (Unspecified)
system.cpu.lsq0.loadToUse::50-59                    2      0.13%     92.06% # Distribution of cycle latency between the first time a load is issued and its completion (Unspecified)
system.cpu.lsq0.loadToUse::60-69                    1      0.06%     92.13% # Distribution of cycle latency between the first time a load is issued and its completion (Unspecified)
system.cpu.lsq0.loadToUse::70-79                    3      0.19%     92.32% # Distribution of cycle latency between the first time a load is issued and its completion (Unspecified)
system.cpu.lsq0.loadToUse::80-89                    6      0.39%     92.71% # Distribution of cycle latency between the first time a load is issued and its completion (Unspecified)
system.cpu.lsq0.loadToUse::90-99                   21      1.35%     94.06% # Distribution of cycle latency between the first time a load is issued and its completion (Unspecified)
system.cpu.lsq0.loadToUse::100-109                 21      1.35%     95.42% # Distribution of cycle latency between the first time a load is issued and its completion (Unspecified)
system.cpu.lsq0.loadToUse::110-119                 22      1.42%     96.84% # Distribution of cycle latency between the first time a load is issued and its completion (Unspecified)
system.cpu.lsq0.loadToUse::120-129                 29      1.87%     98.71% # Distribution of cycle latency between the first time a load is issued and its completion (Unspecified)
system.cpu.lsq0.loadToUse::130-139                  9      0.58%     99.29% # Distribution of cycle latency between the first time a load is issued and its completion (Unspecified)
system.cpu.lsq0.loadToUse::150-159                  3      0.19%     99.48% # Distribution of cycle latency between the first time a load is issued and its completion (Unspecified)
system.cpu.lsq0.loadToUse::180-189                  1      0.06%     99.55% # Distribution of cycle latency between the first time a load is issued and its completion (Unspecified)
system.cpu.lsq0.loadToUse::210-219                  4      0.26%     99.81% # Distribution of cycle latency between the first time a load is issued and its completion (Unspecified)
system.cpu.lsq0.loadToUse::220-229                  1      0.06%     99.87% # Distribution of cycle latency between the first time a load is issued and its completion (Unspecified)
system.cpu.lsq0.loadToUse::230-239                  1      0.06%     99.94% # Distribution of cycle latency between the first time a load is issued and its completion (Unspecified)
system.cpu.lsq0.loadToUse::overflows                1      0.06%    100.00% # Distribution of cycle latency between the first time a load is issued and its completion (Unspecified)
system.cpu.lsq0.loadToUse::min_value                2                       # Distribution of cycle latency between the first time a load is issued and its completion (Unspecified)
system.cpu.lsq0.loadToUse::max_value              346                       # Distribution of cycle latency between the first time a load is issued and its completion (Unspecified)
system.cpu.lsq0.loadToUse::total                 1550                       # Distribution of cycle latency between the first time a load is issued and its completion (Unspecified)
system.cpu.mmu.dtb.rdAccesses                    2732                       # TLB accesses on read requests (Count)
system.cpu.mmu.dtb.wrAccesses                    2230                       # TLB accesses on write requests (Count)
system.cpu.mmu.dtb.rdMisses                        74                       # TLB misses on read requests (Count)
system.cpu.mmu.dtb.wrMisses                        22                       # TLB misses on write requests (Count)
system.cpu.mmu.dtb.walker.power_state.pwrStateResidencyTicks::UNDEFINED     84400000                       # Cumulative time (in ticks) in various power states (Tick)
system.cpu.mmu.itb.rdAccesses                       0                       # TLB accesses on read requests (Count)
system.cpu.mmu.itb.wrAccesses                   19175                       # TLB accesses on write requests (Count)
system.cpu.mmu.itb.rdMisses                         0                       # TLB misses on read requests (Count)
system.cpu.mmu.itb.wrMisses                       173                       # TLB misses on write requests (Count)
system.cpu.mmu.itb.walker.power_state.pwrStateResidencyTicks::UNDEFINED     84400000                       # Cumulative time (in ticks) in various power states (Tick)
system.cpu.power_state.pwrStateResidencyTicks::ON     84400000                       # Cumulative time (in ticks) in various power states (Tick)
system.cpu.rename.squashCycles                    653                       # Number of cycles rename is squashing (Cycle)
system.cpu.rename.idleCycles                    33226                       # Number of cycles rename is idle (Cycle)
system.cpu.rename.blockCycles                    3212                       # Number of cycles rename is blocking (Cycle)
system.cpu.rename.serializeStallCycles             45                       # count of cycles rename stalled for serializing inst (Cycle)
system.cpu.rename.runCycles                     21268                       # Number of cycles rename is running (Cycle)
system.cpu.rename.unblockCycles                  4844                       # Number of cycles rename is unblocking (Cycle)
system.cpu.rename.renamedInsts                 139588                       # Number of instructions processed by rename (Count)
system.cpu.rename.ROBFullEvents                    16                       # Number of times rename has blocked due to ROB full (Count)
[...]
system.membus.snoopFanout::overflows                0      0.00%    100.00% # Request fanout histogram (Count)
system.membus.snoopFanout::min_value                0                       # Request fanout histogram (Count)
system.membus.snoopFanout::max_value                0                       # Request fanout histogram (Count)
system.membus.snoopFanout::total                  753                       # Request fanout histogram (Count)
system.membus.power_state.pwrStateResidencyTicks::UNDEFINED     84400000                       # Cumulative time (in ticks) in various power states (Tick)
system.membus.reqLayer2.occupancy              993247                       # Layer occupancy (ticks) (Tick)
system.membus.reqLayer2.utilization               0.0                       # Layer utilization (Ratio)
system.membus.respLayer0.occupancy            3856001                       # Layer occupancy (ticks) (Tick)
system.membus.respLayer0.utilization              0.0                       # Layer utilization (Ratio)
system.membus.snoop_filter.totRequests            993                       # Total number of requests made to the snoop filter. (Count)
system.membus.snoop_filter.hitSingleRequests          271                       # Number of requests hitting in the snoop filter with a single holder of the requested data. (Count)
system.membus.snoop_filter.hitMultiRequests            0                       # Number of requests hitting in the snoop filter with multiple (>1) holders of the requested data. (Count)
system.membus.snoop_filter.totSnoops                0                       # Total number of snoops made to the snoop filter. (Count)
system.membus.snoop_filter.hitSingleSnoops            0                       # Number of snoops hitting in the snoop filter with a single holder of the requested data. (Count)
system.membus.snoop_filter.hitMultiSnoops            0                       # Number of snoops hitting in the snoop filter with multiple (>1) holders of the requested data. (Count)
system.victimbus.transDist::ReadResp              123                       # Transaction distribution (Count)
system.victimbus.transDist::WritebackClean          237                       # Transaction distribution (Count)
system.victimbus.transDist::UpgradeReq             31                       # Transaction distribution (Count)
system.victimbus.transDist::UpgradeResp            31                       # Transaction distribution (Count)
system.victimbus.transDist::ReadExReq             114                       # Transaction distribution (Count)
system.victimbus.transDist::ReadExResp            114                       # Transaction distribution (Count)
system.victimbus.transDist::ReadSharedReq          123                       # Transaction distribution (Count)
system.victimbus.pktCount_system.cpu.dcache.mem_side_port::system.victimcache.cpu_side_port          536                       # Packet count per connected requestor and responder (Count)
system.victimbus.pktSize_system.cpu.dcache.mem_side_port::system.victimcache.cpu_side_port        15168                       # Cumulative packet size per connected requestor and responder (Byte)
system.victimbus.snoops                           237                       # Total snoops (Count)
system.victimbus.snoopTraffic                   15168                       # Total snoop traffic (Byte)
system.victimbus.snoopFanout::samples             505                       # Request fanout histogram (Count)
system.victimbus.snoopFanout::mean           0.469307                       # Request fanout histogram (Count)
system.victimbus.snoopFanout::stdev          0.499552                       # Request fanout histogram (Count)
system.victimbus.snoopFanout::underflows            0      0.00%      0.00% # Request fanout histogram (Count)
system.victimbus.snoopFanout::0                   268     53.07%     53.07% # Request fanout histogram (Count)
system.victimbus.snoopFanout::1                   237     46.93%    100.00% # Request fanout histogram (Count)
system.victimbus.snoopFanout::overflows             0      0.00%    100.00% # Request fanout histogram (Count)
system.victimbus.snoopFanout::min_value             0                       # Request fanout histogram (Count)
system.victimbus.snoopFanout::max_value             1                       # Request fanout histogram (Count)
system.victimbus.snoopFanout::total               505                       # Request fanout histogram (Count)
system.victimbus.power_state.pwrStateResidencyTicks::UNDEFINED     84400000                       # Cumulative time (in ticks) in various power states (Tick)
system.victimbus.reqLayer0.occupancy           268000                       # Layer occupancy (ticks) (Tick)
system.victimbus.reqLayer0.utilization            0.0                       # Layer utilization (Ratio)
system.victimbus.respLayer0.occupancy          772732                       # Layer occupancy (ticks) (Tick)
system.victimbus.respLayer0.utilization           0.0                       # Layer utilization (Ratio)
system.victimbus.snoop_filter.totRequests          268                       # Total number of requests made to the snoop filter. (Count)
system.victimbus.snoop_filter.hitSingleRequests           31                       # Number of requests hitting in the snoop filter with a single holder of the requested data. (Count)
system.victimbus.snoop_filter.hitMultiRequests            0                       # Number of requests hitting in the snoop filter with multiple (>1) holders of the requested data. (Count)
system.victimbus.snoop_filter.totSnoops           237                       # Total number of snoops made to the snoop filter. (Count)
system.victimbus.snoop_filter.hitSingleSnoops          237                       # Number of snoops hitting in the snoop filter with a single holder of the requested data. (Count)
system.victimbus.snoop_filter.hitMultiSnoops            0                       # Number of snoops hitting in the snoop filter with multiple (>1) holders of the requested data. (Count)
system.victimcache.demandMisses::cpu.data          237                       # number of demand (read+write) misses (Count)
system.victimcache.demandMisses::total            237                       # number of demand (read+write) misses (Count)
system.victimcache.overallMisses::cpu.data          237                       # number of overall misses (Count)
system.victimcache.overallMisses::total           237                       # number of overall misses (Count)
system.victimcache.demandMissLatency::cpu.data     25324000                       # number of demand (read+write) miss ticks (Tick)
system.victimcache.demandMissLatency::total     25324000                       # number of demand (read+write) miss ticks (Tick)
system.victimcache.overallMissLatency::cpu.data     25324000                       # number of overall miss ticks (Tick)
system.victimcache.overallMissLatency::total     25324000                       # number of overall miss ticks (Tick)
system.victimcache.demandAccesses::cpu.data          237                       # number of demand (read+write) accesses (Count)
system.victimcache.demandAccesses::total          237                       # number of demand (read+write) accesses (Count)
system.victimcache.overallAccesses::cpu.data          237                       # number of overall (read+write) accesses (Count)
system.victimcache.overallAccesses::total          237                       # number of overall (read+write) accesses (Count)
system.victimcache.demandMissRate::cpu.data            1                       # miss rate for demand accesses (Ratio)
system.victimcache.demandMissRate::total            1                       # miss rate for demand accesses (Ratio)
system.victimcache.overallMissRate::cpu.data            1                       # miss rate for overall accesses (Ratio)
system.victimcache.overallMissRate::total            1                       # miss rate for overall accesses (Ratio)
system.victimcache.demandAvgMissLatency::cpu.data 106852.320675                       # average overall miss latency ((Cycle/Count))
system.victimcache.demandAvgMissLatency::total 106852.320675                       # average overall miss latency ((Cycle/Count))
system.victimcache.overallAvgMissLatency::cpu.data 106852.320675                       # average overall miss latency ((Cycle/Count))
system.victimcache.overallAvgMissLatency::total 106852.320675                       # average overall miss latency ((Cycle/Count))
system.victimcache.blockedCycles::no_mshrs          399                       # number of cycles access was blocked (Cycle)
system.victimcache.blockedCycles::no_targets            0                       # number of cycles access was blocked (Cycle)
system.victimcache.blockedCauses::no_mshrs           10                       # number of times access was blocked (Count)
system.victimcache.blockedCauses::no_targets            0                       # number of times access was blocked (Count)
system.victimcache.avgBlocked::no_mshrs     39.900000                       # average number of cycles each access was blocked ((Cycle/Count))
system.victimcache.avgBlocked::no_targets          nan                       # average number of cycles each access was blocked ((Cycle/Count))
system.victimcache.writebacks::writebacks          237                       # number of writebacks (Count)
system.victimcache.writebacks::total              237                       # number of writebacks (Count)
system.victimcache.demandMshrMisses::cpu.data          237                       # number of demand (read+write) MSHR misses (Count)
system.victimcache.demandMshrMisses::total          237                       # number of demand (read+write) MSHR misses (Count)
system.victimcache.overallMshrMisses::cpu.data          237                       # number of overall MSHR misses (Count)
system.victimcache.overallMshrMisses::total          237                       # number of overall MSHR misses (Count)
system.victimcache.demandMshrMissLatency::cpu.data     25324000                       # number of demand (read+write) MSHR miss ticks (Tick)
system.victimcache.demandMshrMissLatency::total     25324000                       # number of demand (read+write) MSHR miss ticks (Tick)
system.victimcache.overallMshrMissLatency::cpu.data     25324000                       # number of overall MSHR miss ticks (Tick)
system.victimcache.overallMshrMissLatency::total     25324000                       # number of overall MSHR miss ticks (Tick)
system.victimcache.demandMshrMissRate::cpu.data            1                       # mshr miss ratio for demand accesses (Ratio)
system.victimcache.demandMshrMissRate::total            1                       # mshr miss ratio for demand accesses (Ratio)
system.victimcache.overallMshrMissRate::cpu.data            1                       # mshr miss ratio for overall accesses (Ratio)
system.victimcache.overallMshrMissRate::total            1                       # mshr miss ratio for overall accesses (Ratio)
system.victimcache.demandAvgMshrMissLatency::cpu.data 106852.320675                       # average overall mshr miss latency ((Cycle/Count))
system.victimcache.demandAvgMshrMissLatency::total 106852.320675                       # average overall mshr miss latency ((Cycle/Count))
system.victimcache.overallAvgMshrMissLatency::cpu.data 106852.320675                       # average overall mshr miss latency ((Cycle/Count))
system.victimcache.overallAvgMshrMissLatency::total 106852.320675                       # average overall mshr miss latency ((Cycle/Count))
system.victimcache.replacements                     0                       # number of replacements (Count)
system.victimcache.ReadExReq.misses::cpu.data          114                       # number of ReadExReq misses (Count)
system.victimcache.ReadExReq.misses::total          114                       # number of ReadExReq misses (Count)
system.victimcache.ReadExReq.missLatency::cpu.data     11605000                       # number of ReadExReq miss ticks (Tick)
system.victimcache.ReadExReq.missLatency::total     11605000                       # number of ReadExReq miss ticks (Tick)
system.victimcache.ReadExReq.accesses::cpu.data          114                       # number of ReadExReq accesses(hits+misses) (Count)
system.victimcache.ReadExReq.accesses::total          114                       # number of ReadExReq accesses(hits+misses) (Count)
system.victimcache.ReadExReq.missRate::cpu.data            1                       # miss rate for ReadExReq accesses (Ratio)
system.victimcache.ReadExReq.missRate::total            1                       # miss rate for ReadExReq accesses (Ratio)
system.victimcache.ReadExReq.avgMissLatency::cpu.data 101798.245614                       # average ReadExReq miss latency ((Tick/Count))
system.victimcache.ReadExReq.avgMissLatency::total 101798.245614                       # average ReadExReq miss latency ((Tick/Count))
system.victimcache.ReadExReq.mshrMisses::cpu.data          114                       # number of ReadExReq MSHR misses (Count)
system.victimcache.ReadExReq.mshrMisses::total          114                       # number of ReadExReq MSHR misses (Count)
system.victimcache.ReadExReq.mshrMissLatency::cpu.data     11605000                       # number of ReadExReq MSHR miss ticks (Tick)
system.victimcache.ReadExReq.mshrMissLatency::total     11605000                       # number of ReadExReq MSHR miss ticks (Tick)
system.victimcache.ReadExReq.mshrMissRate::cpu.data            1                       # mshr miss rate for ReadExReq accesses (Ratio)
system.victimcache.ReadExReq.mshrMissRate::total            1                       # mshr miss rate for ReadExReq accesses (Ratio)
system.victimcache.ReadExReq.avgMshrMissLatency::cpu.data 101798.245614                       # average ReadExReq mshr miss latency ((Tick/Count))
system.victimcache.ReadExReq.avgMshrMissLatency::total 101798.245614                       # average ReadExReq mshr miss latency ((Tick/Count))
system.victimcache.ReadSharedReq.misses::cpu.data          123                       # number of ReadSharedReq misses (Count)
system.victimcache.ReadSharedReq.misses::total          123                       # number of ReadSharedReq misses (Count)
system.victimcache.ReadSharedReq.missLatency::cpu.data     13719000                       # number of ReadSharedReq miss ticks (Tick)
system.victimcache.ReadSharedReq.missLatency::total     13719000                       # number of ReadSharedReq miss ticks (Tick)
system.victimcache.ReadSharedReq.accesses::cpu.data          123                       # number of ReadSharedReq accesses(hits+misses) (Count)
system.victimcache.ReadSharedReq.accesses::total          123                       # number of ReadSharedReq accesses(hits+misses) (Count)
system.victimcache.ReadSharedReq.missRate::cpu.data            1                       # miss rate for ReadSharedReq accesses (Ratio)
system.victimcache.ReadSharedReq.missRate::total            1                       # miss rate for ReadSharedReq accesses (Ratio)
system.victimcache.ReadSharedReq.avgMissLatency::cpu.data 111536.585366                       # average ReadSharedReq miss latency ((Tick/Count))
system.victimcache.ReadSharedReq.avgMissLatency::total 111536.585366                       # average ReadSharedReq miss latency ((Tick/Count))
system.victimcache.ReadSharedReq.mshrMisses::cpu.data          123                       # number of ReadSharedReq MSHR misses (Count)
system.victimcache.ReadSharedReq.mshrMisses::total          123                       # number of ReadSharedReq MSHR misses (Count)
system.victimcache.ReadSharedReq.mshrMissLatency::cpu.data     13719000                       # number of ReadSharedReq MSHR miss ticks (Tick)
system.victimcache.ReadSharedReq.mshrMissLatency::total     13719000                       # number of ReadSharedReq MSHR miss ticks (Tick)
system.victimcache.ReadSharedReq.mshrMissRate::cpu.data            1                       # mshr miss rate for ReadSharedReq accesses (Ratio)
system.victimcache.ReadSharedReq.mshrMissRate::total            1                       # mshr miss rate for ReadSharedReq accesses (Ratio)
system.victimcache.ReadSharedReq.avgMshrMissLatency::cpu.data 111536.585366                       # average ReadSharedReq mshr miss latency ((Tick/Count))
system.victimcache.ReadSharedReq.avgMshrMissLatency::total 111536.585366                       # average ReadSharedReq mshr miss latency ((Tick/Count))
system.victimcache.UpgradeReq.misses::cpu.data           31                       # number of UpgradeReq misses (Count)
system.victimcache.UpgradeReq.misses::total           31                       # number of UpgradeReq misses (Count)
system.victimcache.UpgradeReq.accesses::cpu.data           31                       # number of UpgradeReq accesses(hits+misses) (Count)
system.victimcache.UpgradeReq.accesses::total           31                       # number of UpgradeReq accesses(hits+misses) (Count)
system.victimcache.UpgradeReq.missRate::cpu.data            1                       # miss rate for UpgradeReq accesses (Ratio)
system.victimcache.UpgradeReq.missRate::total            1                       # miss rate for UpgradeReq accesses (Ratio)
system.victimcache.UpgradeReq.mshrMisses::cpu.data           31                       # number of UpgradeReq MSHR misses (Count)
system.victimcache.UpgradeReq.mshrMisses::total           31                       # number of UpgradeReq MSHR misses (Count)
system.victimcache.UpgradeReq.mshrMissLatency::cpu.data      1641000                       # number of UpgradeReq MSHR miss ticks (Tick)
system.victimcache.UpgradeReq.mshrMissLatency::total      1641000                       # number of UpgradeReq MSHR miss ticks (Tick)
system.victimcache.UpgradeReq.mshrMissRate::cpu.data            1                       # mshr miss rate for UpgradeReq accesses (Ratio)
system.victimcache.UpgradeReq.mshrMissRate::total            1                       # mshr miss rate for UpgradeReq accesses (Ratio)
system.victimcache.UpgradeReq.avgMshrMissLatency::cpu.data 52935.483871                       # average UpgradeReq mshr miss latency ((Tick/Count))
system.victimcache.UpgradeReq.avgMshrMissLatency::total 52935.483871                       # average UpgradeReq mshr miss latency ((Tick/Count))
system.victimcache.power_state.pwrStateResidencyTicks::UNDEFINED     84400000                       # Cumulative time (in ticks) in various power states (Tick)
system.victimcache.tags.tagsInUse                   0                       # Average ticks per tags in use ((Tick/Count))
system.victimcache.tags.totalRefs                   0                       # Total number of references to valid blocks. (Count)
system.victimcache.tags.sampledRefs                 0                       # Sample count of references to valid blocks. (Count)
system.victimcache.tags.avgRefs                   nan                       # Average number of references to valid blocks. ((Count/Count))
system.victimcache.tags.warmupTick                  0                       # The tick when the warmup percentage was hit. (Tick)
system.victimcache.tags.tagAccesses              2144                       # Number of tag accesses (Count)
system.victimcache.tags.dataAccesses             2144                       # Number of data accesses (Count)
system.victimcache.tags.power_state.pwrStateResidencyTicks::UNDEFINED     84400000                       # Cumulative time (in ticks) in various power states (Tick)
system.workload.inst.arm                            0                       # number of arm instructions executed (Count)
system.workload.inst.quiesce                        0                       # number of quiesce instructions executed (Count)

---------- End Simulation Statistics   ----------
