
---------- Begin Simulation Statistics ----------
simSeconds                                   0.000231                       # Number of seconds simulated (Second)
simTicks                                    230784000                       # Number of ticks simulated (Tick)
finalTick                                   230784000                       # Number of ticks from beginning of simulation (restored from checkpoints and never reset) (Tick)
simFreq                                  1000000000000                       # The number of ticks per simulated second ((Tick/Second))
hostSeconds                                      1.61                       # Real time elapsed on the host (Second)
hostTickRate                                143702365                       # The number of ticks simulated per host second (ticks/s) ((Tick/Second))
hostMemory                                     645988                       # Number of bytes of host memory used (Byte)
simInsts                                       123096                       # Number of instructions simulated (Count)
simOps                                         245690                       # Number of ops (including micro ops) simulated (Count)
hostInstRate                                    76642                       # Simulator instruction rate (inst/s) ((Count/Second))
hostOpRate                                     152971                       # Simulator op (including micro ops) rate (op/s) ((Count/Second))
system.clk_domain.clock                          1000                       # Clock period in ticks (Tick)
system.clk_domain.voltage_domain.voltage            1                       # Voltage in Volts (Volt)
system.cpu.numCycles                           230785                       # Number of cpu cycles simulated (Cycle)
system.cpu.numWorkItemsStarted                      0                       # Number of work items this cpu started (Count)
system.cpu.numWorkItemsCompleted                    0                       # Number of work items this cpu completed (Count)
system.cpu.instsAdded                          259133                       # Number of instructions added to the IQ (excludes non-spec) (Count)
system.cpu.nonSpecInstsAdded                        1                       # Number of non-speculative instructions added to the IQ (Count)
system.cpu.instsIssued                         625336                       # Number of instructions issued (Count)
system.cpu.squashedInstsIssued                     51                       # Number of squashed instructions issued (Count)
system.cpu.squashedInstsExamined                13438                       # Number of squashed instructions iterated over during squash; mainly for profiling (Count)
system.cpu.squashedOperandsExamined             15107                       # Number of squashed operands that are examined and possibly removed from graph (Count)
system.cpu.squashedNonSpecRemoved                   1                       # Number of squashed non-spec instructions that were removed (Count)
system.cpu.numIssuedDist::samples              210430                       # Number of insts issued each cycle (Count)
system.cpu.numIssuedDist::mean               2.971706                       # Number of insts issued each cycle (Count)
system.cpu.numIssuedDist::stdev              2.256827                       # Number of insts issued each cycle (Count)
system.cpu.numIssuedDist::underflows                0      0.00%      0.00% # Number of insts issued each cycle (Count)
system.cpu.numIssuedDist::0                     50041     23.78%     23.78% # Number of insts issued each cycle (Count)
system.cpu.numIssuedDist::1                     19437      9.24%     33.02% # Number of insts issued each cycle (Count)
system.cpu.numIssuedDist::2                     18162      8.63%     41.65% # Number of insts issued each cycle (Count)
system.cpu.numIssuedDist::3                     13839      6.58%     48.22% # Number of insts issued each cycle (Count)
system.cpu.numIssuedDist::4                     58783     27.93%     76.16% # Number of insts issued each cycle (Count)
system.cpu.numIssuedDist::5                     28191     13.40%     89.56% # Number of insts issued each cycle (Count)
system.cpu.numIssuedDist::6                      9647      4.58%     94.14% # Number of insts issued each cycle (Count)
system.cpu.numIssuedDist::7                      4551      2.16%     96.30% # Number of insts issued each cycle (Count)
system.cpu.numIssuedDist::8                      7779      3.70%    100.00% # Number of insts issued each cycle (Count)
system.cpu.numIssuedDist::overflows                 0      0.00%    100.00% # Number of insts issued each cycle (Count)
system.cpu.numIssuedDist::min_value                 0                       # Number of insts issued each cycle (Count)
system.cpu.numIssuedDist::max_value                 8                       # Number of insts issued each cycle (Count)
system.cpu.numIssuedDist::total                210430                       # Number of insts issued each cycle (Count)
system.cpu.statFuBusy::No_OpClass                   0      0.00%      0.00% # attempts to use FU when none available (Count)
system.cpu.statFuBusy::IntAlu                     259      0.31%      0.31% # attempts to use FU when none available (Count)
system.cpu.statFuBusy::IntMult                      0      0.00%      0.31% # attempts to use FU when none available (Count)
system.cpu.statFuBusy::IntDiv                       0      0.00%      0.31% # attempts to use FU when none available (Count)
system.cpu.statFuBusy::FloatAdd                     0      0.00%      0.31% # attempts to use FU when none available (Count)
system.cpu.statFuBusy::FloatCmp                     0      0.00%      0.31% # attempts to use FU when none available (Count)
system.cpu.statFuBusy::FloatCvt                     0      0.00%      0.31% # attempts to use FU when none available (Count)
system.cpu.statFuBusy::FloatMult                    0      0.00%      0.31% # attempts to use FU when none available (Count)
system.cpu.statFuBusy::FloatMultAcc                 0      0.00%      0.31% # attempts to use FU when none available (Count)
system.cpu.statFuBusy::FloatDiv                     0      0.00%      0.31% # attempts to use FU when none available (Count)
system.cpu.statFuBusy::FloatMisc                    0      0.00%      0.31% # attempts to use FU when none available (Count)
system.cpu.statFuBusy::FloatSqrt                    0      0.00%      0.31% # attempts to use FU when none available (Count)
system.cpu.statFuBusy::SimdAdd                      0      0.00%      0.31% # attempts to use FU when none available (Count)
system.cpu.statFuBusy::SimdAddAcc                   0      0.00%      0.31% # attempts to use FU when none available (Count)
system.cpu.statFuBusy::SimdAlu                     11      0.01%      0.32% # attempts to use FU when none available (Count)
system.cpu.statFuBusy::SimdCmp                      0      0.00%      0.32% # attempts to use FU when none available (Count)
system.cpu.statFuBusy::SimdCvt                      1      0.00%      0.32% # attempts to use FU when none available (Count)
system.cpu.statFuBusy::SimdMisc                     2      0.00%      0.32% # attempts to use FU when none available (Count)
system.cpu.statFuBusy::SimdMult                     0      0.00%      0.32% # attempts to use FU when none available (Count)
system.cpu.statFuBusy::SimdMultAcc                  0      0.00%      0.32% # attempts to use FU when none available (Count)
system.cpu.statFuBusy::SimdShift                    0      0.00%      0.32% # attempts to use FU when none available (Count)
system.cpu.statFuBusy::SimdShiftAcc                 0      0.00%      0.32% # attempts to use FU when none available (Count)
system.cpu.statFuBusy::SimdDiv                      0      0.00%      0.32% # attempts to use FU when none available (Count)
system.cpu.statFuBusy::SimdSqrt                     0      0.00%      0.32% # attempts to use FU when none available (Count)
system.cpu.statFuBusy::SimdFloatAdd                 0      0.00%      0.32% # attempts to use FU when none available (Count)
system.cpu.statFuBusy::SimdFloatAlu                 0      0.00%      0.32% # attempts to use FU when none available (Count)
system.cpu.statFuBusy::SimdFloatCmp                 0      0.00%      0.32% # attempts to use FU when none available (Count)
system.cpu.statFuBusy::SimdFloatCvt                 0      0.00%      0.32% # attempts to use FU when none available (Count)
system.cpu.statFuBusy::SimdFloatDiv                 0      0.00%      0.32% # attempts to use FU when none available (Count)
system.cpu.statFuBusy::SimdFloatMisc                0      0.00%      0.32% # attempts to use FU when none available (Count)
system.cpu.statFuBusy::SimdFloatMult                0      0.00%      0.32% # attempts to use FU when none available (Count)
system.cpu.statFuBusy::SimdFloatMultAcc             0      0.00%      0.32% # attempts to use FU when none available (Count)
system.cpu.statFuBusy::SimdFloatSqrt                0      0.00%      0.32% # attempts to use FU when none available (Count)
system.cpu.statFuBusy::SimdReduceAdd                0      0.00%      0.32% # attempts to use FU when none available (Count)
system.cpu.statFuBusy::SimdReduceAlu                0      0.00%      0.32% # attempts to use FU when none available (Count)
system.cpu.statFuBusy::SimdReduceCmp                0      0.00%      0.32% # attempts to use FU when none available (Count)
system.cpu.statFuBusy::SimdFloatReduceAdd            0      0.00%      0.32% # attempts to use FU when none available (Count)
system.cpu.statFuBusy::SimdFloatReduceCmp            0      0.00%      0.32% # attempts to use FU when none available (Count)
system.cpu.statFuBusy::SimdAes                      0      0.00%      0.32% # attempts to use FU when none available (Count)
system.cpu.statFuBusy::SimdAesMix                   0      0.00%      0.32% # attempts to use FU when none available (Count)
system.cpu.statFuBusy::SimdSha1Hash                 0      0.00%      0.32% # attempts to use FU when none available (Count)
system.cpu.statFuBusy::SimdSha1Hash2                0      0.00%      0.32% # attempts to use FU when none available (Count)
system.cpu.statFuBusy::SimdSha256Hash               0      0.00%      0.32% # attempts to use FU when none available (Count)
system.cpu.statFuBusy::SimdSha256Hash2              0      0.00%      0.32% # attempts to use FU when none available (Count)
system.cpu.statFuBusy::SimdShaSigma2                0      0.00%      0.32% # attempts to use FU when none available (Count)
system.cpu.statFuBusy::SimdShaSigma3                0      0.00%      0.32% # attempts to use FU when none available (Count)
system.cpu.statFuBusy::SimdPredAlu                  0      0.00%      0.32% # attempts to use FU when none available (Count)
system.cpu.statFuBusy::MemRead                     58      0.07%      0.39% # attempts to use FU when none available (Count)
system.cpu.statFuBusy::MemWrite                    27      0.03%      0.42% # attempts to use FU when none available (Count)
system.cpu.statFuBusy::FloatMemRead             84345     99.57%     99.99% # attempts to use FU when none available (Count)
system.cpu.statFuBusy::FloatMemWrite                8      0.01%    100.00% # attempts to use FU when none available (Count)
system.cpu.statFuBusy::IprAccess                    0      0.00%    100.00% # attempts to use FU when none available (Count)
system.cpu.statFuBusy::InstPrefetch                 0      0.00%    100.00% # attempts to use FU when none available (Count)
system.cpu.statIssuedInstType_0::No_OpClass          671      0.11%      0.11% # Number of instructions issued per FU type, per thread (Count)
system.cpu.statIssuedInstType_0::IntAlu        102030     16.32%     16.42% # Number of instructions issued per FU type, per thread (Count)
system.cpu.statIssuedInstType_0::IntMult            5      0.00%     16.42% # Number of instructions issued per FU type, per thread (Count)
system.cpu.statIssuedInstType_0::IntDiv            22      0.00%     16.43% # Number of instructions issued per FU type, per thread (Count)
system.cpu.statIssuedInstType_0::FloatAdd          136      0.02%     16.45% # Number of instructions issued per FU type, per thread (Count)
system.cpu.statIssuedInstType_0::FloatCmp            0      0.00%     16.45% # Number of instructions issued per FU type, per thread (Count)
system.cpu.statIssuedInstType_0::FloatCvt            0      0.00%     16.45% # Number of instructions issued per FU type, per thread (Count)
system.cpu.statIssuedInstType_0::FloatMult            0      0.00%     16.45% # Number of instructions issued per FU type, per thread (Count)
system.cpu.statIssuedInstType_0::FloatMultAcc            0      0.00%     16.45% # Number of instructions issued per FU type, per thread (Count)
system.cpu.statIssuedInstType_0::FloatDiv            0      0.00%     16.45% # Number of instructions issued per FU type, per thread (Count)
system.cpu.statIssuedInstType_0::FloatMisc            0      0.00%     16.45% # Number of instructions issued per FU type, per thread (Count)
system.cpu.statIssuedInstType_0::FloatSqrt            0      0.00%     16.45% # Number of instructions issued per FU type, per thread (Count)
system.cpu.statIssuedInstType_0::SimdAdd            0      0.00%     16.45% # Number of instructions issued per FU type, per thread (Count)
system.cpu.statIssuedInstType_0::SimdAddAcc            0      0.00%     16.45% # Number of instructions issued per FU type, per thread (Count)
system.cpu.statIssuedInstType_0::SimdAlu          162      0.03%     16.48% # Number of instructions issued per FU type, per thread (Count)
system.cpu.statIssuedInstType_0::SimdCmp            0      0.00%     16.48% # Number of instructions issued per FU type, per thread (Count)
system.cpu.statIssuedInstType_0::SimdCvt           49      0.01%     16.48% # Number of instructions issued per FU type, per thread (Count)
system.cpu.statIssuedInstType_0::SimdMisc          218      0.03%     16.52% # Number of instructions issued per FU type, per thread (Count)
system.cpu.statIssuedInstType_0::SimdMult            0      0.00%     16.52% # Number of instructions issued per FU type, per thread (Count)
system.cpu.statIssuedInstType_0::SimdMultAcc            0      0.00%     16.52% # Number of instructions issued per FU type, per thread (Count)
system.cpu.statIssuedInstType_0::SimdShift            0      0.00%     16.52% # Number of instructions issued per FU type, per thread (Count)
system.cpu.statIssuedInstType_0::SimdShiftAcc            0      0.00%     16.52% # Number of instructions issued per FU type, per thread (Count)
system.cpu.statIssuedInstType_0::SimdDiv            0      0.00%     16.52% # Number of instructions issued per FU type, per thread (Count)
system.cpu.statIssuedInstType_0::SimdSqrt            0      0.00%     16.52% # Number of instructions issued per FU type, per thread (Count)
system.cpu.statIssuedInstType_0::SimdFloatAdd        73728     11.79%     28.31% # Number of instructions issued per FU type, per thread (Count)
system.cpu.statIssuedInstType_0::SimdFloatAlu            0      0.00%     28.31% # Number of instructions issued per FU type, per thread (Count)
system.cpu.statIssuedInstType_0::SimdFloatCmp            0      0.00%     28.31% # Number of instructions issued per FU type, per thread (Count)
system.cpu.statIssuedInstType_0::SimdFloatCvt            0      0.00%     28.31% # Number of instructions issued per FU type, per thread (Count)
system.cpu.statIssuedInstType_0::SimdFloatDiv            0      0.00%     28.31% # Number of instructions issued per FU type, per thread (Count)
system.cpu.statIssuedInstType_0::SimdFloatMisc            0      0.00%     28.31% # Number of instructions issued per FU type, per thread (Count)
system.cpu.statIssuedInstType_0::SimdFloatMult            0      0.00%     28.31% # Number of instructions issued per FU type, per thread (Count)
system.cpu.statIssuedInstType_0::SimdFloatMultAcc            0      0.00%     28.31% # Number of instructions issued per FU type, per thread (Count)
system.cpu.statIssuedInstType_0::SimdFloatSqrt            0      0.00%     28.31% # Number of instructions issued per FU type, per thread (Count)
system.cpu.statIssuedInstType_0::SimdReduceAdd            0      0.00%     28.31% # Number of instructions issued per FU type, per thread (Count)
system.cpu.statIssuedInstType_0::SimdReduceAlu            0      0.00%     28.31% # Number of instructions issued per FU type, per thread (Count)
system.cpu.statIssuedInstType_0::SimdReduceCmp            0      0.00%     28.31% # Number of instructions issued per FU type, per thread (Count)
system.cpu.statIssuedInstType_0::SimdFloatReduceAdd            0      0.00%     28.31% # Number of instructions issued per FU type, per thread (Count)
system.cpu.statIssuedInstType_0::SimdFloatReduceCmp            0      0.00%     28.31% # Number of instructions issued per FU type, per thread (Count)
system.cpu.statIssuedInstType_0::SimdAes            0      0.00%     28.31% # Number of instructions issued per FU type, per thread (Count)
system.cpu.statIssuedInstType_0::SimdAesMix            0      0.00%     28.31% # Number of instructions issued per FU type, per thread (Count)
system.cpu.statIssuedInstType_0::SimdSha1Hash            0      0.00%     28.31% # Number of instructions issued per FU type, per thread (Count)
system.cpu.statIssuedInstType_0::SimdSha1Hash2            0      0.00%     28.31% # Number of instructions issued per FU type, per thread (Count)
system.cpu.statIssuedInstType_0::SimdSha256Hash            0      0.00%     28.31% # Number of instructions issued per FU type, per thread (Count)
system.cpu.statIssuedInstType_0::SimdSha256Hash2            0      0.00%     28.31% # Number of instructions issued per FU type, per thread (Count)
system.cpu.statIssuedInstType_0::SimdShaSigma2            0      0.00%     28.31% # Number of instructions issued per FU type, per thread (Count)
system.cpu.statIssuedInstType_0::SimdShaSigma3            0      0.00%     28.31% # Number of instructions issued per FU type, per thread (Count)
system.cpu.statIssuedInstType_0::SimdPredAlu            0      0.00%     28.31% # Number of instructions issued per FU type, per thread (Count)
system.cpu.statIssuedInstType_0::MemRead         2932      0.47%     28.78% # Number of instructions issued per FU type, per thread (Count)
system.cpu.statIssuedInstType_0::MemWrite         1798      0.29%     29.06% # Number of instructions issued per FU type, per thread (Count)
system.cpu.statIssuedInstType_0::FloatMemRead       443048     70.85%     99.91% # Number of instructions issued per FU type, per thread (Count)
system.cpu.statIssuedInstType_0::FloatMemWrite          537      0.09%    100.00% # Number of instructions issued per FU type, per thread (Count)
system.cpu.statIssuedInstType_0::IprAccess            0      0.00%    100.00% # Number of instructions issued per FU type, per thread (Count)
system.cpu.statIssuedInstType_0::InstPrefetch            0      0.00%    100.00% # Number of instructions issued per FU type, per thread (Count)
system.cpu.statIssuedInstType_0::total         625336                       # Number of instructions issued per FU type, per thread (Count)
system.cpu.issueRate                         2.709604                       # Inst issue rate ((Count/Cycle))
system.cpu.fuBusy                               84711                       # FU busy when requested (Count)
system.cpu.fuBusyRate                        0.135465                       # FU busy rate (busy events/executed inst) ((Count/Count))
system.cpu.intInstQueueReads                   425459                       # Number of integer instruction queue reads (Count)
system.cpu.intInstQueueWrites                  123596                       # Number of integer instruction queue writes (Count)
system.cpu.intInstQueueWakeupAccesses          105604                       # Number of integer instruction queue wakeup accesses (Count)
system.cpu.fpInstQueueReads                   1120405                       # Number of floating instruction queue reads (Count)
system.cpu.fpInstQueueWrites                   148988                       # Number of floating instruction queue writes (Count)
system.cpu.fpInstQueueWakeupAccesses           148745                       # Number of floating instruction queue wakeup accesses (Count)
system.cpu.vecInstQueueReads                        0                       # Number of vector instruction queue reads (Count)
system.cpu.vecInstQueueWrites                       0                       # Number of vector instruction queue writes (Count)
system.cpu.vecInstQueueWakeupAccesses               0                       # Number of vector instruction queue wakeup accesses (Count)
system.cpu.intAluAccesses                      106990                       # Number of integer alu accesses (Count)
system.cpu.fpAluAccesses                       602386                       # Number of floating point alu accesses (Count)
system.cpu.vecAluAccesses                           0                       # Number of vector alu accesses (Count)
system.cpu.idleCycles                               0                       # Number of cycles IEW is idle (Cycle)
system.cpu.squashCycles                           608                       # Number of cycles IEW is squashing (Cycle)
system.cpu.blockCycles                           4339                       # Number of cycles IEW is blocking (Cycle)
system.cpu.unblockCycles                         6209                       # Number of cycles IEW is unblocking (Cycle)
system.cpu.dispatchedInsts                     259134                       # Number of instructions dispatched to IQ (Count)
system.cpu.dispSquashedInsts                       27                       # Number of squashed instructions skipped by dispatch (Count)
system.cpu.dispLoadInsts                        76913                       # Number of dispatched load instructions (Count)
system.cpu.dispStoreInsts                        2726                       # Number of dispatched store instructions (Count)
system.cpu.dispNonSpecInsts                         1                       # Number of dispatched non-speculative instructions (Count)
system.cpu.iqFullEvents                            35                       # Number of times the IQ has become full, causing a stall (Count)
system.cpu.lsqFullEvents                         6076                       # Number of times the LSQ has become full, causing a stall (Count)
system.cpu.memOrderViolationEvents                 13                       # Number of memory order violations (Count)
system.cpu.predictedTakenIncorrect                 49                       # Number of branches that were predicted taken incorrectly (Count)
system.cpu.predictedNotTakenIncorrect             649                       # Number of branches that were predicted not taken incorrectly (Count)
system.cpu.branchMispredicts                      698                       # Number of branch mispredicts detected at execute (Count)
system.cpu.numInsts                            624377                       # Number of executed instructions (Count)
system.cpu.numLoadInsts                        445805                       # Number of load instructions executed (Count)
system.cpu.numSquashedInsts                       959                       # Number of squashed instructions skipped in execute (Count)
system.cpu.numSwp                                   0                       # Number of swp insts executed (Count)
system.cpu.numNop                                   0                       # Number of nop insts executed (Count)
system.cpu.numRefs                             448050                       # Number of memory reference insts executed (Count)
system.cpu.numBranches                          10670                       # Number of branches executed (Count)
system.cpu.numStoreInsts                         2245                       # Number of stores executed (Count)
system.cpu.numRate                           2.705449                       # Inst execution rate ((Count/Cycle))
system.cpu.instsToCommit                       254747                       # Cumulative count of insts sent to commit (Count)
system.cpu.writebackCount                      254349                       # Cumulative count of insts written-back (Count)
system.cpu.producerInst                        225966                       # Number of instructions producing a value (Count)
system.cpu.consumerInst                        343849                       # Number of instructions consuming a value (Count)
system.cpu.wbRate                            1.102104                       # Insts written-back per cycle ((Count/Cycle))
system.cpu.wbFanout                          0.657166                       # Average fanout of values written-back ((Count/Count))
system.cpu.timesIdled                             295                       # Number of times that the entire CPU went into an idle state and unscheduled itself (Count)
system.cpu.idleCycles                           20355                       # Total number of cycles that the CPU has spent unscheduled due to idling (Cycle)
system.cpu.committedInsts                      123096                       # Number of Instructions Simulated (Count)
system.cpu.committedOps                        245690                       # Number of Ops (including micro ops) Simulated (Count)
system.cpu.cpi                               1.874838                       # CPI: Cycles Per Instruction ((Cycle/Count))
system.cpu.totalCpi                          1.874838                       # CPI: Total CPI of All Threads ((Cycle/Count))
system.cpu.ipc                               0.533380                       # IPC: Instructions Per Cycle ((Count/Cycle))
system.cpu.totalIpc                          0.533380                       # IPC: Total IPC of All Threads ((Count/Cycle))
system.cpu.intRegfileReads                    1010733                       # Number of integer regfile reads (Count)
system.cpu.intRegfileWrites                     92962                       # Number of integer regfile writes (Count)
system.cpu.fpRegfileReads                      222731                       # Number of floating regfile reads (Count)
system.cpu.fpRegfileWrites                     148177                       # Number of floating regfile writes (Count)
system.cpu.ccRegfileReads                       60345                       # number of cc regfile reads (Count)
system.cpu.ccRegfileWrites                      56551                       # number of cc regfile writes (Count)
system.cpu.miscRegfileReads                    470443                       # number of misc regfile reads (Count)
system.cpu.MemDepUnit__0.insertedLoads          76913                       # Number of loads inserted to the mem dependence unit. (Count)
system.cpu.MemDepUnit__0.insertedStores          2726                       # Number of stores inserted to the mem dependence unit. (Count)
system.cpu.MemDepUnit__0.conflictingLoads           24                       # Number of conflicting loads. (Count)
system.cpu.MemDepUnit__0.conflictingStores            1                       # Number of conflicting stores. (Count)
system.cpu.MemDepUnit__1.insertedLoads              0                       # Number of loads inserted to the mem dependence unit. (Count)
system.cpu.MemDepUnit__1.insertedStores             0                       # Number of stores inserted to the mem dependence unit. (Count)
system.cpu.MemDepUnit__1.conflictingLoads            0                       # Number of conflicting loads. (Count)
system.cpu.MemDepUnit__1.conflictingStores            0                       # Number of conflicting stores. (Count)
system.cpu.MemDepUnit__2.insertedLoads              0                       # Number of loads inserted to the mem dependence unit. (Count)
system.cpu.MemDepUnit__2.insertedStores             0                       # Number of stores inserted to the mem dependence unit. (Count)
system.cpu.MemDepUnit__2.conflictingLoads            0                       # Number of conflicting loads. (Count)
system.cpu.MemDepUnit__2.conflictingStores            0                       # Number of conflicting stores. (Count)
system.cpu.MemDepUnit__3.insertedLoads              0                       # Number of loads inserted to the mem dependence unit. (Count)
system.cpu.MemDepUnit__3.insertedStores             0                       # Number of stores inserted to the mem dependence unit. (Count)
system.cpu.MemDepUnit__3.conflictingLoads            0                       # Number of conflicting loads. (Count)
system.cpu.MemDepUnit__3.conflictingStores            0                       # Number of conflicting stores. (Count)
system.cpu.branchPred.lookups                   12353                       # Number of BP lookups (Count)
system.cpu.branchPred.condPredicted             11083                       # Number of conditional branches predicted (Count)
system.cpu.branchPred.condIncorrect               696                       # Number of conditional branches incorrect (Count)
system.cpu.branchPred.BTBLookups                10081                       # Number of BTB lookups (Count)
system.cpu.branchPred.BTBHits                    9399                       # Number of BTB hits (Count)
system.cpu.branchPred.BTBHitRatio            0.932348                       # BTB Hit Ratio (Ratio)
system.cpu.branchPred.RASUsed                     279                       # Number of times the RAS was used to get a target. (Count)
system.cpu.branchPred.RASIncorrect                  0                       # Number of incorrect RAS predictions. (Count)
system.cpu.branchPred.indirectLookups             357                       # Number of indirect predictor lookups. (Count)
system.cpu.branchPred.indirectHits                 12                       # Number of indirect target hits. (Count)
system.cpu.branchPred.indirectMisses              345                       # Number of indirect misses. (Count)
system.cpu.branchPred.indirectMispredicted           94                       # Number of mispredicted indirect branches. (Count)
system.cpu.commit.commitSquashedInsts           13330                       # The number of squashed insts skipped by commit (Count)
system.cpu.commit.branchMispredicts               583                       # The number of times a branch was mispredicted (Count)
system.cpu.commit.numCommittedDist::samples       208300                       # Number of insts commited each cycle (Count)
system.cpu.commit.numCommittedDist::mean     1.179501                       # Number of insts commited each cycle (Count)
system.cpu.commit.numCommittedDist::stdev     1.967921                       # Number of insts commited each cycle (Count)
system.cpu.commit.numCommittedDist::underflows            0      0.00%      0.00% # Number of insts commited each cycle (Count)
system.cpu.commit.numCommittedDist::0          121673     58.41%     58.41% # Number of insts commited each cycle (Count)
system.cpu.commit.numCommittedDist::1           14791      7.10%     65.51% # Number of insts commited each cycle (Count)
system.cpu.commit.numCommittedDist::2           52778     25.34%     90.85% # Number of insts commited each cycle (Count)
system.cpu.commit.numCommittedDist::3            1562      0.75%     91.60% # Number of insts commited each cycle (Count)
system.cpu.commit.numCommittedDist::4             638      0.31%     91.91% # Number of insts commited each cycle (Count)
system.cpu.commit.numCommittedDist::5             708      0.34%     92.25% # Number of insts commited each cycle (Count)
system.cpu.commit.numCommittedDist::6            7265      3.49%     95.73% # Number of insts commited each cycle (Count)
system.cpu.commit.numCommittedDist::7             105      0.05%     95.78% # Number of insts commited each cycle (Count)
system.cpu.commit.numCommittedDist::8            8780      4.22%    100.00% # Number of insts commited each cycle (Count)
system.cpu.commit.numCommittedDist::overflows            0      0.00%    100.00% # Number of insts commited each cycle (Count)
system.cpu.commit.numCommittedDist::min_value            0                       # Number of insts commited each cycle (Count)
system.cpu.commit.numCommittedDist::max_value            8                       # Number of insts commited each cycle (Count)
system.cpu.commit.numCommittedDist::total       208300                       # Number of insts commited each cycle (Count)
system.cpu.commit.instsCommitted               123096                       # Number of instructions committed (Count)
system.cpu.commit.opsCommitted                 245690                       # Number of ops (including micro ops) committed (Count)
system.cpu.commit.memRefs                       76918                       # Number of memory references committed (Count)
system.cpu.commit.loads                         75280                       # Number of loads committed (Count)
system.cpu.commit.amos                              0                       # Number of atomic instructions committed (Count)
system.cpu.commit.membars                           0                       # Number of memory barriers committed (Count)
system.cpu.commit.branches                       9935                       # Number of branches committed (Count)
system.cpu.commit.vectorInstructions                0                       # Number of committed Vector instructions. (Count)
system.cpu.commit.floating                     148608                       # Number of committed floating point instructions. (Count)
system.cpu.commit.integer                      171210                       # Number of committed integer instructions. (Count)
system.cpu.commit.functionCalls                   150                       # Number of function calls committed. (Count)
system.cpu.commit.committedInstType_0::No_OpClass          195      0.08%      0.08% # Class of committed instruction (Count)
system.cpu.commit.committedInstType_0::IntAlu        94331     38.39%     38.47% # Class of committed instruction (Count)
system.cpu.commit.committedInstType_0::IntMult            5      0.00%     38.48% # Class of committed instruction (Count)
system.cpu.commit.committedInstType_0::IntDiv           21      0.01%     38.48% # Class of committed instruction (Count)
system.cpu.commit.committedInstType_0::FloatAdd          135      0.05%     38.54% # Class of committed instruction (Count)
system.cpu.commit.committedInstType_0::FloatCmp            0      0.00%     38.54% # Class of committed instruction (Count)
system.cpu.commit.committedInstType_0::FloatCvt            0      0.00%     38.54% # Class of committed instruction (Count)
system.cpu.commit.committedInstType_0::FloatMult            0      0.00%     38.54% # Class of committed instruction (Count)
system.cpu.commit.committedInstType_0::FloatMultAcc            0      0.00%     38.54% # Class of committed instruction (Count)
system.cpu.commit.committedInstType_0::FloatDiv            0      0.00%     38.54% # Class of committed instruction (Count)
system.cpu.commit.committedInstType_0::FloatMisc            0      0.00%     38.54% # Class of committed instruction (Count)
system.cpu.commit.committedInstType_0::FloatSqrt            0      0.00%     38.54% # Class of committed instruction (Count)
system.cpu.commit.committedInstType_0::SimdAdd            0      0.00%     38.54% # Class of committed instruction (Count)
system.cpu.commit.committedInstType_0::SimdAddAcc            0      0.00%     38.54% # Class of committed instruction (Count)
system.cpu.commit.committedInstType_0::SimdAlu           96      0.04%     38.58% # Class of committed instruction (Count)
system.cpu.commit.committedInstType_0::SimdCmp            0      0.00%     38.58% # Class of committed instruction (Count)
system.cpu.commit.committedInstType_0::SimdCvt           46      0.02%     38.60% # Class of committed instruction (Count)
system.cpu.commit.committedInstType_0::SimdMisc          215      0.09%     38.68% # Class of committed instruction (Count)
system.cpu.commit.committedInstType_0::SimdMult            0      0.00%     38.68% # Class of committed instruction (Count)
system.cpu.commit.committedInstType_0::SimdMultAcc            0      0.00%     38.68% # Class of committed instruction (Count)
system.cpu.commit.committedInstType_0::SimdShift            0      0.00%     38.68% # Class of committed instruction (Count)
system.cpu.commit.committedInstType_0::SimdShiftAcc            0      0.00%     38.68% # Class of committed instruction (Count)
system.cpu.commit.committedInstType_0::SimdDiv            0      0.00%     38.68% # Class of committed instruction (Count)
system.cpu.commit.committedInstType_0::SimdSqrt            0      0.00%     38.68% # Class of committed instruction (Count)
system.cpu.commit.committedInstType_0::SimdFloatAdd        73728     30.01%     68.69% # Class of committed instruction (Count)
system.cpu.commit.committedInstType_0::SimdFloatAlu            0      0.00%     68.69% # Class of committed instruction (Count)
system.cpu.commit.committedInstType_0::SimdFloatCmp            0      0.00%     68.69% # Class of committed instruction (Count)
system.cpu.commit.committedInstType_0::SimdFloatCvt            0      0.00%     68.69% # Class of committed instruction (Count)
system.cpu.commit.committedInstType_0::SimdFloatDiv            0      0.00%     68.69% # Class of committed instruction (Count)
system.cpu.commit.committedInstType_0::SimdFloatMisc            0      0.00%     68.69% # Class of committed instruction (Count)
system.cpu.commit.committedInstType_0::SimdFloatMult            0      0.00%     68.69% # Class of committed instruction (Count)
system.cpu.commit.committedInstType_0::SimdFloatMultAcc            0      0.00%     68.69% # Class of committed instruction (Count)
system.cpu.commit.committedInstType_0::SimdFloatSqrt            0      0.00%     68.69% # Class of committed instruction (Count)
system.cpu.commit.committedInstType_0::SimdReduceAdd            0      0.00%     68.69% # Class of committed instruction (Count)
system.cpu.commit.committedInstType_0::SimdReduceAlu            0      0.00%     68.69% # Class of committed instruction (Count)
system.cpu.commit.committedInstType_0::SimdReduceCmp            0      0.00%     68.69% # Class of committed instruction (Count)
system.cpu.commit.committedInstType_0::SimdFloatReduceAdd            0      0.00%     68.69% # Class of committed instruction (Count)
system.cpu.commit.committedInstType_0::SimdFloatReduceCmp            0      0.00%     68.69% # Class of committed instruction (Count)
system.cpu.commit.committedInstType_0::SimdAes            0      0.00%     68.69% # Class of committed instruction (Count)
system.cpu.commit.committedInstType_0::SimdAesMix            0      0.00%     68.69% # Class of committed instruction (Count)
system.cpu.commit.committedInstType_0::SimdSha1Hash            0      0.00%     68.69% # Class of committed instruction (Count)
system.cpu.commit.committedInstType_0::SimdSha1Hash2            0      0.00%     68.69% # Class of committed instruction (Count)
system.cpu.commit.committedInstType_0::SimdSha256Hash            0      0.00%     68.69% # Class of committed instruction (Count)
system.cpu.commit.committedInstType_0::SimdSha256Hash2            0      0.00%     68.69% # Class of committed instruction (Count)
system.cpu.commit.committedInstType_0::SimdShaSigma2            0      0.00%     68.69% # Class of committed instruction (Count)
system.cpu.commit.committedInstType_0::SimdShaSigma3            0      0.00%     68.69% # Class of committed instruction (Count)
system.cpu.commit.committedInstType_0::SimdPredAlu            0      0.00%     68.69% # Class of committed instruction (Count)
system.cpu.commit.committedInstType_0::MemRead         1498      0.61%     69.30% # Class of committed instruction (Count)
system.cpu.commit.committedInstType_0::MemWrite         1171      0.48%     69.78% # Class of committed instruction (Count)
system.cpu.commit.committedInstType_0::FloatMemRead        73782     30.03%     99.81% # Class of committed instruction (Count)
system.cpu.commit.committedInstType_0::FloatMemWrite          467      0.19%    100.00% # Class of committed instruction (Count)
system.cpu.commit.committedInstType_0::IprAccess            0      0.00%    100.00% # Class of committed instruction (Count)
system.cpu.commit.committedInstType_0::InstPrefetch            0      0.00%    100.00% # Class of committed instruction (Count)
system.cpu.commit.committedInstType_0::total       245690                       # Class of committed instruction (Count)
system.cpu.commit.commitEligibleSamples          8780                       # number cycles where commit BW limit reached (Cycle)
system.cpu.dcache.demandHits::cpu.data          14182                       # number of demand (read+write) hits (Count)
system.cpu.dcache.demandHits::total             14182                       # number of demand (read+write) hits (Count)
system.cpu.dcache.overallHits::cpu.data         14182                       # number of overall hits (Count)
system.cpu.dcache.overallHits::total            14182                       # number of overall hits (Count)
system.cpu.dcache.demandMisses::cpu.data        68259                       # number of demand (read+write) misses (Count)
system.cpu.dcache.demandMisses::total           68259                       # number of demand (read+write) misses (Count)
system.cpu.dcache.overallMisses::cpu.data        68259                       # number of overall misses (Count)
system.cpu.dcache.overallMisses::total          68259                       # number of overall misses (Count)
system.cpu.dcache.demandMissLatency::cpu.data    903860999                       # number of demand (read+write) miss ticks (Tick)
system.cpu.dcache.demandMissLatency::total    903860999                       # number of demand (read+write) miss ticks (Tick)
system.cpu.dcache.overallMissLatency::cpu.data    903860999                       # number of overall miss ticks (Tick)
system.cpu.dcache.overallMissLatency::total    903860999                       # number of overall miss ticks (Tick)
system.cpu.dcache.demandAccesses::cpu.data        82441                       # number of demand (read+write) accesses (Count)
system.cpu.dcache.demandAccesses::total         82441                       # number of demand (read+write) accesses (Count)
system.cpu.dcache.overallAccesses::cpu.data        82441                       # number of overall (read+write) accesses (Count)
system.cpu.dcache.overallAccesses::total        82441                       # number of overall (read+write) accesses (Count)
system.cpu.dcache.demandMissRate::cpu.data     0.827974                       # miss rate for demand accesses (Ratio)
system.cpu.dcache.demandMissRate::total      0.827974                       # miss rate for demand accesses (Ratio)
system.cpu.dcache.overallMissRate::cpu.data     0.827974                       # miss rate for overall accesses (Ratio)
system.cpu.dcache.overallMissRate::total     0.827974                       # miss rate for overall accesses (Ratio)
system.cpu.dcache.demandAvgMissLatency::cpu.data 13241.638451                       # average overall miss latency ((Cycle/Count))
system.cpu.dcache.demandAvgMissLatency::total 13241.638451                       # average overall miss latency ((Cycle/Count))
system.cpu.dcache.overallAvgMissLatency::cpu.data 13241.638451                       # average overall miss latency ((Cycle/Count))
system.cpu.dcache.overallAvgMissLatency::total 13241.638451                       # average overall miss latency ((Cycle/Count))
system.cpu.dcache.blockedCycles::no_mshrs       103967                       # number of cycles access was blocked (Cycle)
system.cpu.dcache.blockedCycles::no_targets            0                       # number of cycles access was blocked (Cycle)
system.cpu.dcache.blockedCauses::no_mshrs        49353                       # number of times access was blocked (Count)
system.cpu.dcache.blockedCauses::no_targets            0                       # number of times access was blocked (Count)
system.cpu.dcache.avgBlocked::no_mshrs       2.106599                       # average number of cycles each access was blocked ((Cycle/Count))
system.cpu.dcache.avgBlocked::no_targets          nan                       # average number of cycles each access was blocked ((Cycle/Count))
system.cpu.dcache.writebacks::writebacks        54766                       # number of writebacks (Count)
system.cpu.dcache.writebacks::total             54766                       # number of writebacks (Count)
system.cpu.dcache.demandMshrHits::cpu.data        13211                       # number of demand (read+write) MSHR hits (Count)
system.cpu.dcache.demandMshrHits::total         13211                       # number of demand (read+write) MSHR hits (Count)
system.cpu.dcache.overallMshrHits::cpu.data        13211                       # number of overall MSHR hits (Count)
system.cpu.dcache.overallMshrHits::total        13211                       # number of overall MSHR hits (Count)
system.cpu.dcache.demandMshrMisses::cpu.data        55048                       # number of demand (read+write) MSHR misses (Count)
system.cpu.dcache.demandMshrMisses::total        55048                       # number of demand (read+write) MSHR misses (Count)
system.cpu.dcache.overallMshrMisses::cpu.data        55048                       # number of overall MSHR misses (Count)
system.cpu.dcache.overallMshrMisses::total        55048                       # number of overall MSHR misses (Count)
system.cpu.dcache.demandMshrMissLatency::cpu.data    631322859                       # number of demand (read+write) MSHR miss ticks (Tick)
system.cpu.dcache.demandMshrMissLatency::total    631322859                       # number of demand (read+write) MSHR miss ticks (Tick)
system.cpu.dcache.overallMshrMissLatency::cpu.data    631322859                       # number of overall MSHR miss ticks (Tick)
system.cpu.dcache.overallMshrMissLatency::total    631322859                       # number of overall MSHR miss ticks (Tick)
system.cpu.dcache.demandMshrMissRate::cpu.data     0.667726                       # mshr miss ratio for demand accesses (Ratio)
system.cpu.dcache.demandMshrMissRate::total     0.667726                       # mshr miss ratio for demand accesses (Ratio)
system.cpu.dcache.overallMshrMissRate::cpu.data     0.667726                       # mshr miss ratio for overall accesses (Ratio)
system.cpu.dcache.overallMshrMissRate::total     0.667726                       # mshr miss ratio for overall accesses (Ratio)
system.cpu.dcache.demandAvgMshrMissLatency::cpu.data 11468.588486                       # average overall mshr miss latency ((Cycle/Count))
system.cpu.dcache.demandAvgMshrMissLatency::total 11468.588486                       # average overall mshr miss latency ((Cycle/Count))
system.cpu.dcache.overallAvgMshrMissLatency::cpu.data 11468.588486                       # average overall mshr miss latency ((Cycle/Count))
system.cpu.dcache.overallAvgMshrMissLatency::total 11468.588486                       # average overall mshr miss latency ((Cycle/Count))
system.cpu.dcache.replacements                  54766                       # number of replacements (Count)
system.cpu.dcache.ReadReq.hits::cpu.data        12689                       # number of ReadReq hits (Count)
system.cpu.dcache.ReadReq.hits::total           12689                       # number of ReadReq hits (Count)
system.cpu.dcache.ReadReq.misses::cpu.data        68114                       # number of ReadReq misses (Count)
system.cpu.dcache.ReadReq.misses::total         68114                       # number of ReadReq misses (Count)
system.cpu.dcache.ReadReq.missLatency::cpu.data    889396000                       # number of ReadReq miss ticks (Tick)
system.cpu.dcache.ReadReq.missLatency::total    889396000                       # number of ReadReq miss ticks (Tick)
system.cpu.dcache.ReadReq.accesses::cpu.data        80803                       # number of ReadReq accesses(hits+misses) (Count)
system.cpu.dcache.ReadReq.accesses::total        80803                       # number of ReadReq accesses(hits+misses) (Count)
system.cpu.dcache.ReadReq.missRate::cpu.data     0.842964                       # miss rate for ReadReq accesses (Ratio)
system.cpu.dcache.ReadReq.missRate::total     0.842964                       # miss rate for ReadReq accesses (Ratio)
system.cpu.dcache.ReadReq.avgMissLatency::cpu.data 13057.462489                       # average ReadReq miss latency ((Tick/Count))
system.cpu.dcache.ReadReq.avgMissLatency::total 13057.462489                       # average ReadReq miss latency ((Tick/Count))
system.cpu.dcache.ReadReq.mshrHits::cpu.data        13209                       # number of ReadReq MSHR hits (Count)
system.cpu.dcache.ReadReq.mshrHits::total        13209                       # number of ReadReq MSHR hits (Count)
system.cpu.dcache.ReadReq.mshrMisses::cpu.data        54905                       # number of ReadReq MSHR misses (Count)
system.cpu.dcache.ReadReq.mshrMisses::total        54905                       # number of ReadReq MSHR misses (Count)
system.cpu.dcache.ReadReq.mshrMissLatency::cpu.data    617147860                       # number of ReadReq MSHR miss ticks (Tick)
system.cpu.dcache.ReadReq.mshrMissLatency::total    617147860                       # number of ReadReq MSHR miss ticks (Tick)
system.cpu.dcache.ReadReq.mshrMissRate::cpu.data     0.679492                       # mshr miss rate for ReadReq accesses (Ratio)
system.cpu.dcache.ReadReq.mshrMissRate::total     0.679492                       # mshr miss rate for ReadReq accesses (Ratio)
system.cpu.dcache.ReadReq.avgMshrMissLatency::cpu.data 11240.285220                       # average ReadReq mshr miss latency ((Tick/Count))
system.cpu.dcache.ReadReq.avgMshrMissLatency::total 11240.285220                       # average ReadReq mshr miss latency ((Tick/Count))
system.cpu.dcache.WriteReq.hits::cpu.data         1493                       # number of WriteReq hits (Count)
system.cpu.dcache.WriteReq.hits::total           1493                       # number of WriteReq hits (Count)
system.cpu.dcache.WriteReq.misses::cpu.data          145                       # number of WriteReq misses (Count)
system.cpu.dcache.WriteReq.misses::total          145                       # number of WriteReq misses (Count)
system.cpu.dcache.WriteReq.missLatency::cpu.data     14464999                       # number of WriteReq miss ticks (Tick)
system.cpu.dcache.WriteReq.missLatency::total     14464999                       # number of WriteReq miss ticks (Tick)
system.cpu.dcache.WriteReq.accesses::cpu.data         1638                       # number of WriteReq accesses(hits+misses) (Count)
system.cpu.dcache.WriteReq.accesses::total         1638                       # number of WriteReq accesses(hits+misses) (Count)
system.cpu.dcache.WriteReq.missRate::cpu.data     0.088523                       # miss rate for WriteReq accesses (Ratio)
system.cpu.dcache.WriteReq.missRate::total     0.088523                       # miss rate for WriteReq accesses (Ratio)
system.cpu.dcache.WriteReq.avgMissLatency::cpu.data 99758.613793                       # average WriteReq miss latency ((Tick/Count))
system.cpu.dcache.WriteReq.avgMissLatency::total 99758.613793                       # average WriteReq miss latency ((Tick/Count))
system.cpu.dcache.WriteReq.mshrHits::cpu.data            2                       # number of WriteReq MSHR hits (Count)
system.cpu.dcache.WriteReq.mshrHits::total            2                       # number of WriteReq MSHR hits (Count)
system.cpu.dcache.WriteReq.mshrMisses::cpu.data          143                       # number of WriteReq MSHR misses (Count)
system.cpu.dcache.WriteReq.mshrMisses::total          143                       # number of WriteReq MSHR misses (Count)
system.cpu.dcache.WriteReq.mshrMissLatency::cpu.data     14174999                       # number of WriteReq MSHR miss ticks (Tick)
system.cpu.dcache.WriteReq.mshrMissLatency::total     14174999                       # number of WriteReq MSHR miss ticks (Tick)
system.cpu.dcache.WriteReq.mshrMissRate::cpu.data     0.087302                       # mshr miss rate for WriteReq accesses (Ratio)
system.cpu.dcache.WriteReq.mshrMissRate::total     0.087302                       # mshr miss rate for WriteReq accesses (Ratio)
system.cpu.dcache.WriteReq.avgMshrMissLatency::cpu.data 99125.867133                       # average WriteReq mshr miss latency ((Tick/Count))
system.cpu.dcache.WriteReq.avgMshrMissLatency::total 99125.867133                       # average WriteReq mshr miss latency ((Tick/Count))
system.cpu.dcache.power_state.pwrStateResidencyTicks::UNDEFINED    230784000                       # Cumulative time (in ticks) in various power states (Tick)
system.cpu.dcache.tags.tagsInUse           212.891834                       # Average ticks per tags in use ((Tick/Count))
system.cpu.dcache.tags.totalRefs                69233                       # Total number of references to valid blocks. (Count)
system.cpu.dcache.tags.sampledRefs              55019                       # Sample count of references to valid blocks. (Count)
system.cpu.dcache.tags.avgRefs               1.258347                       # Average number of references to valid blocks. ((Count/Count))
system.cpu.dcache.tags.warmupTick              225000                       # The tick when the warmup percentage was hit. (Tick)
system.cpu.dcache.tags.occupancies::cpu.data   212.891834                       # Average occupied blocks per tick, per requestor ((Count/Tick))
system.cpu.dcache.tags.avgOccs::cpu.data     0.207902                       # Average percentage of cache occupancy ((Ratio/Tick))
system.cpu.dcache.tags.avgOccs::total        0.207902                       # Average percentage of cache occupancy ((Ratio/Tick))
system.cpu.dcache.tags.occupanciesTaskId::1024          253                       # Occupied blocks per task id (Count)
system.cpu.dcache.tags.ageTaskId_1024::0           36                       # Occupied blocks per task id, per block age (Count)
system.cpu.dcache.tags.ageTaskId_1024::2          217                       # Occupied blocks per task id, per block age (Count)
system.cpu.dcache.tags.ratioOccsTaskId::1024     0.247070                       # Ratio of occupied blocks and all blocks, per task id (Ratio)
system.cpu.dcache.tags.tagAccesses             219901                       # Number of tag accesses (Count)
system.cpu.dcache.tags.dataAccesses            219901                       # Number of data accesses (Count)
system.cpu.dcache.tags.power_state.pwrStateResidencyTicks::UNDEFINED    230784000                       # Cumulative time (in ticks) in various power states (Tick)
system.cpu.decode.idleCycles                    24417                       # Number of cycles decode is idle (Cycle)
system.cpu.decode.blockedCycles                151497                       # Number of cycles decode is blocked (Cycle)
system.cpu.decode.runCycles                     12583                       # Number of cycles decode is running (Cycle)
system.cpu.decode.unblockCycles                 21325                       # Number of cycles decode is unblocking (Cycle)
system.cpu.decode.squashCycles                    608                       # Number of cycles decode is squashing (Cycle)
system.cpu.decode.branchResolved                 9524                       # Number of times decode resolved a branch (Count)
system.cpu.decode.branchMispred                   223                       # Number of times decode detected a branch misprediction (Count)
system.cpu.decode.decodedInsts                 263127                       # Number of instructions handled by decode (Count)
system.cpu.decode.squashedInsts                  1008                       # Number of squashed instructions handled by decode (Count)
system.cpu.fetch.icacheStallCycles              32655                       # Number of cycles fetch is stalled on an Icache miss (Cycle)
system.cpu.fetch.insts                         134442                       # Number of instructions fetch has processed (Count)
system.cpu.fetch.branches                       12353                       # Number of branches that fetch encountered (Count)
system.cpu.fetch.predictedBranches               9690                       # Number of branches that fetch has predicted taken (Count)
system.cpu.fetch.cycles                        176079                       # Number of cycles fetch has run and was not squashing or blocked (Cycle)
system.cpu.fetch.squashCycles                    1658                       # Number of cycles fetch has spent squashing (Cycle)
system.cpu.fetch.miscStallCycles                  124                       # Number of cycles fetch has spent waiting on interrupts, or bad addresses, or out of MSHRs (Cycle)
system.cpu.fetch.pendingTrapStallCycles           726                       # Number of stall cycles due to pending traps (Cycle)
system.cpu.fetch.pendingQuiesceStallCycles            2                       # Number of stall cycles due to pending quiesce instructions (Cycle)
system.cpu.fetch.icacheWaitRetryStallCycles           15                       # Number of stall cycles due to full MSHR (Cycle)
system.cpu.fetch.cacheLines                     18808                       # Number of cache lines fetched (Count)
system.cpu.fetch.icacheSquashes                   365                       # Number of outstanding Icache misses that were squashed (Count)
system.cpu.fetch.nisnDist::samples             210430                       # Number of instructions fetched each cycle (Total) (Count)
system.cpu.fetch.nisnDist::mean              1.268821                       # Number of instructions fetched each cycle (Total) (Count)
system.cpu.fetch.nisnDist::stdev             2.700421                       # Number of instructions fetched each cycle (Total) (Count)
system.cpu.fetch.nisnDist::underflows               0      0.00%      0.00% # Number of instructions fetched each cycle (Total) (Count)
system.cpu.fetch.nisnDist::0                   166859     79.29%     79.29% # Number of instructions fetched each cycle (Total) (Count)
system.cpu.fetch.nisnDist::1                     4359      2.07%     81.37% # Number of instructions fetched each cycle (Total) (Count)
system.cpu.fetch.nisnDist::2                      285      0.14%     81.50% # Number of instructions fetched each cycle (Total) (Count)
system.cpu.fetch.nisnDist::3                     1194      0.57%     82.07% # Number of instructions fetched each cycle (Total) (Count)
system.cpu.fetch.nisnDist::4                     5469      2.60%     84.67% # Number of instructions fetched each cycle (Total) (Count)
system.cpu.fetch.nisnDist::5                     4419      2.10%     86.77% # Number of instructions fetched each cycle (Total) (Count)
system.cpu.fetch.nisnDist::6                      317      0.15%     86.92% # Number of instructions fetched each cycle (Total) (Count)
system.cpu.fetch.nisnDist::7                     7610      3.62%     90.53% # Number of instructions fetched each cycle (Total) (Count)
system.cpu.fetch.nisnDist::8                    19918      9.47%    100.00% # Number of instructions fetched each cycle (Total) (Count)
system.cpu.fetch.nisnDist::overflows                0      0.00%    100.00% # Number of instructions fetched each cycle (Total) (Count)
system.cpu.fetch.nisnDist::min_value                0                       # Number of instructions fetched each cycle (Total) (Count)
system.cpu.fetch.nisnDist::max_value                8                       # Number of instructions fetched each cycle (Total) (Count)
system.cpu.fetch.nisnDist::total               210430                       # Number of instructions fetched each cycle (Total) (Count)
system.cpu.fetch.branchRate                  0.053526                       # Number of branch fetches per cycle (Ratio)
system.cpu.fetch.rate                        0.582542                       # Number of inst fetches per cycle ((Count/Cycle))
system.cpu.icache.demandHits::cpu.inst          18191                       # number of demand (read+write) hits (Count)
system.cpu.icache.demandHits::total             18191                       # number of demand (read+write) hits (Count)
system.cpu.icache.overallHits::cpu.inst         18191                       # number of overall hits (Count)
system.cpu.icache.overallHits::total            18191                       # number of overall hits (Count)
system.cpu.icache.demandMisses::cpu.inst          617                       # number of demand (read+write) misses (Count)
system.cpu.icache.demandMisses::total             617                       # number of demand (read+write) misses (Count)
system.cpu.icache.overallMisses::cpu.inst          617                       # number of overall misses (Count)
system.cpu.icache.overallMisses::total            617                       # number of overall misses (Count)
system.cpu.icache.demandMissLatency::cpu.inst     60402999                       # number of demand (read+write) miss ticks (Tick)
system.cpu.icache.demandMissLatency::total     60402999                       # number of demand (read+write) miss ticks (Tick)
system.cpu.icache.overallMissLatency::cpu.inst     60402999                       # number of overall miss ticks (Tick)
system.cpu.icache.overallMissLatency::total     60402999                       # number of overall miss ticks (Tick)
system.cpu.icache.demandAccesses::cpu.inst        18808                       # number of demand (read+write) accesses (Count)
system.cpu.icache.demandAccesses::total         18808                       # number of demand (read+write) accesses (Count)
system.cpu.icache.overallAccesses::cpu.inst        18808                       # number of overall (read+write) accesses (Count)
system.cpu.icache.overallAccesses::total        18808                       # number of overall (read+write) accesses (Count)
system.cpu.icache.demandMissRate::cpu.inst     0.032805                       # miss rate for demand accesses (Ratio)
system.cpu.icache.demandMissRate::total      0.032805                       # miss rate for demand accesses (Ratio)
system.cpu.icache.overallMissRate::cpu.inst     0.032805                       # miss rate for overall accesses (Ratio)
system.cpu.icache.overallMissRate::total     0.032805                       # miss rate for overall accesses (Ratio)
system.cpu.icache.demandAvgMissLatency::cpu.inst 97897.891410                       # average overall miss latency ((Cycle/Count))
system.cpu.icache.demandAvgMissLatency::total 97897.891410                       # average overall miss latency ((Cycle/Count))
system.cpu.icache.overallAvgMissLatency::cpu.inst 97897.891410                       # average overall miss latency ((Cycle/Count))
system.cpu.icache.overallAvgMissLatency::total 97897.891410                       # average overall miss latency ((Cycle/Count))
system.cpu.icache.blockedCycles::no_mshrs          236                       # number of cycles access was blocked (Cycle)
system.cpu.icache.blockedCycles::no_targets            0                       # number of cycles access was blocked (Cycle)
system.cpu.icache.blockedCauses::no_mshrs            5                       # number of times access was blocked (Count)
system.cpu.icache.blockedCauses::no_targets            0                       # number of times access was blocked (Count)
system.cpu.icache.avgBlocked::no_mshrs      47.200000                       # average number of cycles each access was blocked ((Cycle/Count))
system.cpu.icache.avgBlocked::no_targets          nan                       # average number of cycles each access was blocked ((Cycle/Count))
system.cpu.icache.demandMshrHits::cpu.inst          132                       # number of demand (read+write) MSHR hits (Count)
system.cpu.icache.demandMshrHits::total           132                       # number of demand (read+write) MSHR hits (Count)
system.cpu.icache.overallMshrHits::cpu.inst          132                       # number of overall MSHR hits (Count)
system.cpu.icache.overallMshrHits::total          132                       # number of overall MSHR hits (Count)
system.cpu.icache.demandMshrMisses::cpu.inst          485                       # number of demand (read+write) MSHR misses (Count)
system.cpu.icache.demandMshrMisses::total          485                       # number of demand (read+write) MSHR misses (Count)
system.cpu.icache.overallMshrMisses::cpu.inst          485                       # number of overall MSHR misses (Count)
system.cpu.icache.overallMshrMisses::total          485                       # number of overall MSHR misses (Count)
system.cpu.icache.demandMshrMissLatency::cpu.inst     49192999                       # number of demand (read+write) MSHR miss ticks (Tick)
system.cpu.icache.demandMshrMissLatency::total     49192999                       # number of demand (read+write) MSHR miss ticks (Tick)
system.cpu.icache.overallMshrMissLatency::cpu.inst     49192999                       # number of overall MSHR miss ticks (Tick)
system.cpu.icache.overallMshrMissLatency::total     49192999                       # number of overall MSHR miss ticks (Tick)
system.cpu.icache.demandMshrMissRate::cpu.inst     0.025787                       # mshr miss ratio for demand accesses (Ratio)
system.cpu.icache.demandMshrMissRate::total     0.025787                       # mshr miss ratio for demand accesses (Ratio)
system.cpu.icache.overallMshrMissRate::cpu.inst     0.025787                       # mshr miss ratio for overall accesses (Ratio)
system.cpu.icache.overallMshrMissRate::total     0.025787                       # mshr miss ratio for overall accesses (Ratio)
system.cpu.icache.demandAvgMshrMissLatency::cpu.inst 101428.863918                       # average overall mshr miss latency ((Cycle/Count))
system.cpu.icache.demandAvgMshrMissLatency::total 101428.863918                       # average overall mshr miss latency ((Cycle/Count))
system.cpu.icache.overallAvgMshrMissLatency::cpu.inst 101428.863918                       # average overall mshr miss latency ((Cycle/Count))
system.cpu.icache.overallAvgMshrMissLatency::total 101428.863918                       # average overall mshr miss latency ((Cycle/Count))
system.cpu.icache.replacements                    239                       # number of replacements (Count)
system.cpu.icache.ReadReq.hits::cpu.inst        18191                       # number of ReadReq hits (Count)
system.cpu.icache.ReadReq.hits::total           18191                       # number of ReadReq hits (Count)
system.cpu.icache.ReadReq.misses::cpu.inst          617                       # number of ReadReq misses (Count)
system.cpu.icache.ReadReq.misses::total           617                       # number of ReadReq misses (Count)
system.cpu.icache.ReadReq.missLatency::cpu.inst     60402999                       # number of ReadReq miss ticks (Tick)
system.cpu.icache.ReadReq.missLatency::total     60402999                       # number of ReadReq miss ticks (Tick)
system.cpu.icache.ReadReq.accesses::cpu.inst        18808                       # number of ReadReq accesses(hits+misses) (Count)
system.cpu.icache.ReadReq.accesses::total        18808                       # number of ReadReq accesses(hits+misses) (Count)
system.cpu.icache.ReadReq.missRate::cpu.inst     0.032805                       # miss rate for ReadReq accesses (Ratio)
system.cpu.icache.ReadReq.missRate::total     0.032805                       # miss rate for ReadReq accesses (Ratio)
system.cpu.icache.ReadReq.avgMissLatency::cpu.inst 97897.891410                       # average ReadReq miss latency ((Tick/Count))
system.cpu.icache.ReadReq.avgMissLatency::total 97897.891410                       # average ReadReq miss latency ((Tick/Count))
system.cpu.icache.ReadReq.mshrHits::cpu.inst          132                       # number of ReadReq MSHR hits (Count)
system.cpu.icache.ReadReq.mshrHits::total          132                       # number of ReadReq MSHR hits (Count)
system.cpu.icache.ReadReq.mshrMisses::cpu.inst          485                       # number of ReadReq MSHR misses (Count)
system.cpu.icache.ReadReq.mshrMisses::total          485                       # number of ReadReq MSHR misses (Count)
system.cpu.icache.ReadReq.mshrMissLatency::cpu.inst     49192999                       # number of ReadReq MSHR miss ticks (Tick)
system.cpu.icache.ReadReq.mshrMissLatency::total     49192999                       # number of ReadReq MSHR miss ticks (Tick)
system.cpu.icache.ReadReq.mshrMissRate::cpu.inst     0.025787                       # mshr miss rate for ReadReq accesses (Ratio)
system.cpu.icache.ReadReq.mshrMissRate::total     0.025787                       # mshr miss rate for ReadReq accesses (Ratio)
system.cpu.icache.ReadReq.avgMshrMissLatency::cpu.inst 101428.863918                       # average ReadReq mshr miss latency ((Tick/Count))
system.cpu.icache.ReadReq.avgMshrMissLatency::total 101428.863918                       # average ReadReq mshr miss latency ((Tick/Count))
system.cpu.icache.power_state.pwrStateResidencyTicks::UNDEFINED    230784000                       # Cumulative time (in ticks) in various power states (Tick)
system.cpu.icache.tags.tagsInUse           223.963563                       # Average ticks per tags in use ((Tick/Count))
system.cpu.icache.tags.totalRefs                18675                       # Total number of references to valid blocks. (Count)
system.cpu.icache.tags.sampledRefs                484                       # Sample count of references to valid blocks. (Count)
system.cpu.icache.tags.avgRefs              38.584711                       # Average number of references to valid blocks. ((Count/Count))
system.cpu.icache.tags.warmupTick              107000                       # The tick when the warmup percentage was hit. (Tick)
system.cpu.icache.tags.occupancies::cpu.inst   223.963563                       # Average occupied blocks per tick, per requestor ((Count/Tick))
system.cpu.icache.tags.avgOccs::cpu.inst     0.874858                       # Average percentage of cache occupancy ((Ratio/Tick))
system.cpu.icache.tags.avgOccs::total        0.874858                       # Average percentage of cache occupancy ((Ratio/Tick))
system.cpu.icache.tags.occupanciesTaskId::1024          245                       # Occupied blocks per task id (Count)
system.cpu.icache.tags.ageTaskId_1024::0           39                       # Occupied blocks per task id, per block age (Count)
system.cpu.icache.tags.ageTaskId_1024::2          206                       # Occupied blocks per task id, per block age (Count)
system.cpu.icache.tags.ratioOccsTaskId::1024     0.957031                       # Ratio of occupied blocks and all blocks, per task id (Ratio)
system.cpu.icache.tags.tagAccesses              38100                       # Number of tag accesses (Count)
system.cpu.icache.tags.dataAccesses             38100                       # Number of data accesses (Count)
system.cpu.icache.tags.power_state.pwrStateResidencyTicks::UNDEFINED    230784000                       # Cumulative time (in ticks) in various power states (Tick)
system.cpu.interrupts.clk_domain.clock          16000                       # Clock period in ticks (Tick)
system.cpu.lsq0.forwLoads                         208                       # Number of loads that had data forwarded from stores (Count)
system.cpu.lsq0.squashedLoads                    1633                       # Number of loads squashed (Count)
system.cpu.lsq0.ignoredResponses                    1                       # Number of memory responses ignored because the instruction is squashed (Count)
system.cpu.lsq0.memOrderViolation                  13                       # Number of memory ordering violations (Count)
system.cpu.lsq0.squashedStores                   1088                       # Number of stores squashed (Count)
system.cpu.lsq0.rescheduledLoads                    1                       # Number of loads that were rescheduled (Count)
system.cpu.lsq0.blockedByCache                  47217                       # Number of times an access to memory failed due to the cache being blocked (Count)
system.cpu.lsq0.loadToUse::samples              75280                       # Distribution of cycle latency between the first time a load is issued and its completion (Unspecified)
system.cpu.lsq0.loadToUse::mean             33.998831                       # Distribution of cycle latency between the first time a load is issued and its completion (Unspecified)
system.cpu.lsq0.loadToUse::stdev            33.647184                       # Distribution of cycle latency between the first time a load is issued and its completion (Unspecified)
system.cpu.lsq0.loadToUse::0-9                  12870     17.10%     17.10% # Distribution of cycle latency between the first time a load is issued and its completion (Unspecified)
system.cpu.lsq0.loadToUse::10-19                19872     26.40%     43.49% # Distribution of cycle latency between the first time a load is issued and its completion (Unspecified)
system.cpu.lsq0.loadToUse::20-29                12958     17.21%     60.71% # Distribution of cycle latency between the first time a load is issued and its completion (Unspecified)
system.cpu.lsq0.loadToUse::30-39                 8642     11.48%     72.19% # Distribution of cycle latency between the first time a load is issued and its completion (Unspecified)
system.cpu.lsq0.loadToUse::40-49                 2850      3.79%     75.97% # Distribution of cycle latency between the first time a load is issued and its completion (Unspecified)
system.cpu.lsq0.loadToUse::50-59                 3011      4.00%     79.97% # Distribution of cycle latency between the first time a load is issued and its completion (Unspecified)
system.cpu.lsq0.loadToUse::60-69                 4220      5.61%     85.58% # Distribution of cycle latency between the first time a load is issued and its completion (Unspecified)
system.cpu.lsq0.loadToUse::70-79                 3892      5.17%     90.75% # Distribution of cycle latency between the first time a load is issued and its completion (Unspecified)
system.cpu.lsq0.loadToUse::80-89                 2544      3.38%     94.13% # Distribution of cycle latency between the first time a load is issued and its completion (Unspecified)
system.cpu.lsq0.loadToUse::90-99                 1600      2.13%     96.25% # Distribution of cycle latency between the first time a load is issued and its completion (Unspecified)
system.cpu.lsq0.loadToUse::100-109                902      1.20%     97.45% # Distribution of cycle latency between the first time a load is issued and its completion (Unspecified)
system.cpu.lsq0.loadToUse::110-119                471      0.63%     98.08% # Distribution of cycle latency between the first time a load is issued and its completion (Unspecified)
system.cpu.lsq0.loadToUse::120-129                268      0.36%     98.43% # Distribution of cycle latency between the first time a load is issued and its completion (Unspecified)
system.cpu.lsq0.loadToUse::130-139                228      0.30%     98.74% # Distribution of cycle latency between the first time a load is issued and its completion (Unspecified)
system.cpu.lsq0.loadToUse::140-149                165      0.22%     98.95% # Distribution of cycle latency between the first time a load is issued and its completion (Unspecified)
system.cpu.lsq0.loadToUse::150-159                153      0.20%     99.16% # Distribution of cycle latency between the first time a load is issued and its completion (Unspecified)
system.cpu.lsq0.loadToUse::160-169                126      0.17%     99.33% # Distribution of cycle latency between the first time a load is issued and its completion (Unspecified)
system.cpu.lsq0.loadToUse::170-179                 92      0.12%     99.45% # Distribution of cycle latency between the first time a load is issued and its completion (Unspecified)
system.cpu.lsq0.loadToUse::180-189                 77      0.10%     99.55% # Distribution of cycle latency between the first time a load is issued and its completion (Unspecified)
system.cpu.lsq0.loadToUse::190-199                 62      0.08%     99.63% # Distribution of cycle latency between the first time a load is issued and its completion (Unspecified)
system.cpu.lsq0.loadToUse::200-209                 30      0.04%     99.67% # Distribution of cycle latency between the first time a load is issued and its completion (Unspecified)
system.cpu.lsq0.loadToUse::210-219                 38      0.05%     99.72% # Distribution of cycle latency between the first time a load is issued and its completion (Unspecified)
system.cpu.lsq0.loadToUse::220-229                 24      0.03%     99.75% # Distribution of cycle latency between the first time a load is issued and its completion (Unspecified)
system.cpu.lsq0.loadToUse::230-239                 22      0.03%     99.78% # Distribution of cycle latency between the first time a load is issued and its completion (Unspecified)
system.cpu.lsq0.loadToUse::240-249                 13      0.02%     99.80% # Distribution of cycle latency between the first time a load is issued and its completion (Unspecified)
system.cpu.lsq0.loadToUse::250-259                 16      0.02%     99.82% # Distribution of cycle latency between the first time a load is issued and its completion (Unspecified)
system.cpu.lsq0.loadToUse::260-269                 12      0.02%     99.84% # Distribution of cycle latency between the first time a load is issued and its completion (Unspecified)
system.cpu.lsq0.loadToUse::270-279                 13      0.02%     99.86% # Distribution of cycle latency between the first time a load is issued and its completion (Unspecified)
system.cpu.lsq0.loadToUse::280-289                 13      0.02%     99.87% # Distribution of cycle latency between the first time a load is issued and its completion (Unspecified)
system.cpu.lsq0.loadToUse::290-299                 13      0.02%     99.89% # Distribution of cycle latency between the first time a load is issued and its completion (Unspecified)
system.cpu.lsq0.loadToUse::overflows               83      0.11%    100.00% # Distribution of cycle latency between the first time a load is issued and its completion (Unspecified)
system.cpu.lsq0.loadToUse::min_value                2                       # Distribution of cycle latency between the first time a load is issued and its completion (Unspecified)
system.cpu.lsq0.loadToUse::max_value              505                       # Distribution of cycle latency between the first time a load is issued and its completion (Unspecified)
system.cpu.lsq0.loadToUse::total                75280                       # Distribution of cycle latency between the first time a load is issued and its completion (Unspecified)
system.cpu.mmu.dtb.rdAccesses                   81084                       # TLB accesses on read requests (Count)
system.cpu.mmu.dtb.wrAccesses                    2245                       # TLB accesses on write requests (Count)
[...]
system.victimbus.transDist::ReadExResp            114                       # Transaction distribution (Count)
system.victimbus.transDist::ReadSharedReq        54905                       # Transaction distribution (Count)
system.victimbus.pktCount_system.cpu.dcache.mem_side_port::system.victimcache.cpu_side_port       164866                       # Packet count per connected requestor and responder (Count)
system.victimbus.pktSize_system.cpu.dcache.mem_side_port::system.victimcache.cpu_side_port      7026240                       # Cumulative packet size per connected requestor and responder (Byte)
system.victimbus.snoops                         10647                       # Total snoops (Count)
system.victimbus.snoopTraffic                  681408                       # Total snoop traffic (Byte)
system.victimbus.snoopFanout::samples           65697                       # Request fanout histogram (Count)
system.victimbus.snoopFanout::mean           0.083017                       # Request fanout histogram (Count)
system.victimbus.snoopFanout::stdev          0.275911                       # Request fanout histogram (Count)
system.victimbus.snoopFanout::underflows            0      0.00%      0.00% # Request fanout histogram (Count)
system.victimbus.snoopFanout::0                 60243     91.70%     91.70% # Request fanout histogram (Count)
system.victimbus.snoopFanout::1                  5454      8.30%    100.00% # Request fanout histogram (Count)
system.victimbus.snoopFanout::overflows             0      0.00%    100.00% # Request fanout histogram (Count)
system.victimbus.snoopFanout::min_value             0                       # Request fanout histogram (Count)
system.victimbus.snoopFanout::max_value             1                       # Request fanout histogram (Count)
system.victimbus.snoopFanout::total             65697                       # Request fanout histogram (Count)
system.victimbus.power_state.pwrStateResidencyTicks::UNDEFINED    230784000                       # Cumulative time (in ticks) in various power states (Tick)
system.victimbus.reqLayer0.occupancy        165811385                       # Layer occupancy (ticks) (Tick)
system.victimbus.reqLayer0.utilization            0.7                       # Layer utilization (Ratio)
system.victimbus.respLayer0.occupancy       152216810                       # Layer occupancy (ticks) (Tick)
system.victimbus.respLayer0.utilization           0.7                       # Layer utilization (Ratio)
system.victimbus.snoop_filter.totRequests       110431                       # Total number of requests made to the snoop filter. (Count)
system.victimbus.snoop_filter.hitSingleRequests        55412                       # Number of requests hitting in the snoop filter with a single holder of the requested data. (Count)
system.victimbus.snoop_filter.hitMultiRequests            0                       # Number of requests hitting in the snoop filter with multiple (>1) holders of the requested data. (Count)
system.victimbus.snoop_filter.totSnoops          5454                       # Total number of snoops made to the snoop filter. (Count)
system.victimbus.snoop_filter.hitSingleSnoops         5454                       # Number of snoops hitting in the snoop filter with a single holder of the requested data. (Count)
system.victimbus.snoop_filter.hitMultiSnoops            0                       # Number of snoops hitting in the snoop filter with multiple (>1) holders of the requested data. (Count)
system.victimcache.demandHits::cpu.data         49565                       # number of demand (read+write) hits (Count)
system.victimcache.demandHits::total            49565                       # number of demand (read+write) hits (Count)
system.victimcache.overallHits::cpu.data        49565                       # number of overall hits (Count)
system.victimcache.overallHits::total           49565                       # number of overall hits (Count)
system.victimcache.demandMisses::cpu.data         5454                       # number of demand (read+write) misses (Count)
system.victimcache.demandMisses::total           5454                       # number of demand (read+write) misses (Count)
system.victimcache.overallMisses::cpu.data         5454                       # number of overall misses (Count)
system.victimcache.overallMisses::total          5454                       # number of overall misses (Count)
system.victimcache.demandMissLatency::cpu.data    179501000                       # number of demand (read+write) miss ticks (Tick)
system.victimcache.demandMissLatency::total    179501000                       # number of demand (read+write) miss ticks (Tick)
system.victimcache.overallMissLatency::cpu.data    179501000                       # number of overall miss ticks (Tick)
system.victimcache.overallMissLatency::total    179501000                       # number of overall miss ticks (Tick)
system.victimcache.demandAccesses::cpu.data        55019                       # number of demand (read+write) accesses (Count)
system.victimcache.demandAccesses::total        55019                       # number of demand (read+write) accesses (Count)
system.victimcache.overallAccesses::cpu.data        55019                       # number of overall (read+write) accesses (Count)
system.victimcache.overallAccesses::total        55019                       # number of overall (read+write) accesses (Count)
system.victimcache.demandMissRate::cpu.data     0.099129                       # miss rate for demand accesses (Ratio)
system.victimcache.demandMissRate::total     0.099129                       # miss rate for demand accesses (Ratio)
system.victimcache.overallMissRate::cpu.data     0.099129                       # miss rate for overall accesses (Ratio)
system.victimcache.overallMissRate::total     0.099129                       # miss rate for overall accesses (Ratio)
system.victimcache.demandAvgMissLatency::cpu.data 32911.807847                       # average overall miss latency ((Cycle/Count))
system.victimcache.demandAvgMissLatency::total 32911.807847                       # average overall miss latency ((Cycle/Count))
system.victimcache.overallAvgMissLatency::cpu.data 32911.807847                       # average overall miss latency ((Cycle/Count))
system.victimcache.overallAvgMissLatency::total 32911.807847                       # average overall miss latency ((Cycle/Count))
system.victimcache.blockedCycles::no_mshrs        10298                       # number of cycles access was blocked (Cycle)
system.victimcache.blockedCycles::no_targets            0                       # number of cycles access was blocked (Cycle)
system.victimcache.blockedCauses::no_mshrs         1057                       # number of times access was blocked (Count)
system.victimcache.blockedCauses::no_targets            0                       # number of times access was blocked (Count)
system.victimcache.avgBlocked::no_mshrs      9.742668                       # average number of cycles each access was blocked ((Cycle/Count))
system.victimcache.avgBlocked::no_targets          nan                       # average number of cycles each access was blocked ((Cycle/Count))
system.victimcache.writebacks::writebacks        10647                       # number of writebacks (Count)
system.victimcache.writebacks::total            10647                       # number of writebacks (Count)
system.victimcache.demandMshrMisses::cpu.data         5454                       # number of demand (read+write) MSHR misses (Count)
system.victimcache.demandMshrMisses::total         5454                       # number of demand (read+write) MSHR misses (Count)
system.victimcache.overallMshrMisses::cpu.data         5454                       # number of overall MSHR misses (Count)
system.victimcache.overallMshrMisses::total         5454                       # number of overall MSHR misses (Count)
system.victimcache.demandMshrMissLatency::cpu.data    179501000                       # number of demand (read+write) MSHR miss ticks (Tick)
system.victimcache.demandMshrMissLatency::total    179501000                       # number of demand (read+write) MSHR miss ticks (Tick)
system.victimcache.overallMshrMissLatency::cpu.data    179501000                       # number of overall MSHR miss ticks (Tick)
system.victimcache.overallMshrMissLatency::total    179501000                       # number of overall MSHR miss ticks (Tick)
system.victimcache.demandMshrMissRate::cpu.data     0.099129                       # mshr miss ratio for demand accesses (Ratio)
system.victimcache.demandMshrMissRate::total     0.099129                       # mshr miss ratio for demand accesses (Ratio)
system.victimcache.overallMshrMissRate::cpu.data     0.099129                       # mshr miss ratio for overall accesses (Ratio)
system.victimcache.overallMshrMissRate::total     0.099129                       # mshr miss ratio for overall accesses (Ratio)
system.victimcache.demandAvgMshrMissLatency::cpu.data 32911.807847                       # average overall mshr miss latency ((Cycle/Count))
system.victimcache.demandAvgMshrMissLatency::total 32911.807847                       # average overall mshr miss latency ((Cycle/Count))
system.victimcache.overallAvgMshrMissLatency::cpu.data 32911.807847                       # average overall mshr miss latency ((Cycle/Count))
system.victimcache.overallAvgMshrMissLatency::total 32911.807847                       # average overall mshr miss latency ((Cycle/Count))
system.victimcache.replacements                  5193                       # number of replacements (Count)
system.victimcache.ReadExReq.misses::cpu.data          114                       # number of ReadExReq misses (Count)
system.victimcache.ReadExReq.misses::total          114                       # number of ReadExReq misses (Count)
system.victimcache.ReadExReq.missLatency::cpu.data     12009000                       # number of ReadExReq miss ticks (Tick)
system.victimcache.ReadExReq.missLatency::total     12009000                       # number of ReadExReq miss ticks (Tick)
system.victimcache.ReadExReq.accesses::cpu.data          114                       # number of ReadExReq accesses(hits+misses) (Count)
system.victimcache.ReadExReq.accesses::total          114                       # number of ReadExReq accesses(hits+misses) (Count)
system.victimcache.ReadExReq.missRate::cpu.data            1                       # miss rate for ReadExReq accesses (Ratio)
system.victimcache.ReadExReq.missRate::total            1                       # miss rate for ReadExReq accesses (Ratio)
system.victimcache.ReadExReq.avgMissLatency::cpu.data 105342.105263                       # average ReadExReq miss latency ((Tick/Count))
system.victimcache.ReadExReq.avgMissLatency::total 105342.105263                       # average ReadExReq miss latency ((Tick/Count))
system.victimcache.ReadExReq.mshrMisses::cpu.data          114                       # number of ReadExReq MSHR misses (Count)
system.victimcache.ReadExReq.mshrMisses::total          114                       # number of ReadExReq MSHR misses (Count)
system.victimcache.ReadExReq.mshrMissLatency::cpu.data     12009000                       # number of ReadExReq MSHR miss ticks (Tick)
system.victimcache.ReadExReq.mshrMissLatency::total     12009000                       # number of ReadExReq MSHR miss ticks (Tick)
system.victimcache.ReadExReq.mshrMissRate::cpu.data            1                       # mshr miss rate for ReadExReq accesses (Ratio)
system.victimcache.ReadExReq.mshrMissRate::total            1                       # mshr miss rate for ReadExReq accesses (Ratio)
system.victimcache.ReadExReq.avgMshrMissLatency::cpu.data 105342.105263                       # average ReadExReq mshr miss latency ((Tick/Count))
system.victimcache.ReadExReq.avgMshrMissLatency::total 105342.105263                       # average ReadExReq mshr miss latency ((Tick/Count))
system.victimcache.ReadSharedReq.hits::cpu.data        49565                       # number of ReadSharedReq hits (Count)
system.victimcache.ReadSharedReq.hits::total        49565                       # number of ReadSharedReq hits (Count)
system.victimcache.ReadSharedReq.misses::cpu.data         5340                       # number of ReadSharedReq misses (Count)
system.victimcache.ReadSharedReq.misses::total         5340                       # number of ReadSharedReq misses (Count)
system.victimcache.ReadSharedReq.missLatency::cpu.data    167492000                       # number of ReadSharedReq miss ticks (Tick)
system.victimcache.ReadSharedReq.missLatency::total    167492000                       # number of ReadSharedReq miss ticks (Tick)
system.victimcache.ReadSharedReq.accesses::cpu.data        54905                       # number of ReadSharedReq accesses(hits+misses) (Count)
system.victimcache.ReadSharedReq.accesses::total        54905                       # number of ReadSharedReq accesses(hits+misses) (Count)
system.victimcache.ReadSharedReq.missRate::cpu.data     0.097259                       # miss rate for ReadSharedReq accesses (Ratio)
system.victimcache.ReadSharedReq.missRate::total     0.097259                       # miss rate for ReadSharedReq accesses (Ratio)
system.victimcache.ReadSharedReq.avgMissLatency::cpu.data 31365.543071                       # average ReadSharedReq miss latency ((Tick/Count))
system.victimcache.ReadSharedReq.avgMissLatency::total 31365.543071                       # average ReadSharedReq miss latency ((Tick/Count))
system.victimcache.ReadSharedReq.mshrMisses::cpu.data         5340                       # number of ReadSharedReq MSHR misses (Count)
system.victimcache.ReadSharedReq.mshrMisses::total         5340                       # number of ReadSharedReq MSHR misses (Count)
system.victimcache.ReadSharedReq.mshrMissLatency::cpu.data    167492000                       # number of ReadSharedReq MSHR miss ticks (Tick)
system.victimcache.ReadSharedReq.mshrMissLatency::total    167492000                       # number of ReadSharedReq MSHR miss ticks (Tick)
system.victimcache.ReadSharedReq.mshrMissRate::cpu.data     0.097259                       # mshr miss rate for ReadSharedReq accesses (Ratio)
system.victimcache.ReadSharedReq.mshrMissRate::total     0.097259                       # mshr miss rate for ReadSharedReq accesses (Ratio)
system.victimcache.ReadSharedReq.avgMshrMissLatency::cpu.data 31365.543071                       # average ReadSharedReq mshr miss latency ((Tick/Count))
system.victimcache.ReadSharedReq.avgMshrMissLatency::total 31365.543071                       # average ReadSharedReq mshr miss latency ((Tick/Count))
system.victimcache.UpgradeReq.misses::cpu.data           31                       # number of UpgradeReq misses (Count)
system.victimcache.UpgradeReq.misses::total           31                       # number of UpgradeReq misses (Count)
system.victimcache.UpgradeReq.accesses::cpu.data           31                       # number of UpgradeReq accesses(hits+misses) (Count)
system.victimcache.UpgradeReq.accesses::total           31                       # number of UpgradeReq accesses(hits+misses) (Count)
system.victimcache.UpgradeReq.missRate::cpu.data            1                       # miss rate for UpgradeReq accesses (Ratio)
system.victimcache.UpgradeReq.missRate::total            1                       # miss rate for UpgradeReq accesses (Ratio)
system.victimcache.UpgradeReq.mshrMisses::cpu.data           31                       # number of UpgradeReq MSHR misses (Count)
system.victimcache.UpgradeReq.mshrMisses::total           31                       # number of UpgradeReq MSHR misses (Count)
system.victimcache.UpgradeReq.mshrMissLatency::cpu.data      1641000                       # number of UpgradeReq MSHR miss ticks (Tick)
system.victimcache.UpgradeReq.mshrMissLatency::total      1641000                       # number of UpgradeReq MSHR miss ticks (Tick)
system.victimcache.UpgradeReq.mshrMissRate::cpu.data            1                       # mshr miss rate for UpgradeReq accesses (Ratio)
system.victimcache.UpgradeReq.mshrMissRate::total            1                       # mshr miss rate for UpgradeReq accesses (Ratio)
system.victimcache.UpgradeReq.avgMshrMissLatency::cpu.data 52935.483871                       # average UpgradeReq mshr miss latency ((Tick/Count))
system.victimcache.UpgradeReq.avgMshrMissLatency::total 52935.483871                       # average UpgradeReq mshr miss latency ((Tick/Count))
system.victimcache.WritebackClean.hits::writebacks        54764                       # number of WritebackClean hits (Count)
system.victimcache.WritebackClean.hits::total        54764                       # number of WritebackClean hits (Count)
system.victimcache.WritebackClean.accesses::writebacks        54764                       # number of WritebackClean accesses(hits+misses) (Count)
system.victimcache.WritebackClean.accesses::total        54764                       # number of WritebackClean accesses(hits+misses) (Count)
system.victimcache.WritebackDirty.hits::writebacks            2                       # number of WritebackDirty hits (Count)
system.victimcache.WritebackDirty.hits::total            2                       # number of WritebackDirty hits (Count)
system.victimcache.WritebackDirty.accesses::writebacks            2                       # number of WritebackDirty accesses(hits+misses) (Count)
system.victimcache.WritebackDirty.accesses::total            2                       # number of WritebackDirty accesses(hits+misses) (Count)
system.victimcache.power_state.pwrStateResidencyTicks::UNDEFINED    230784000                       # Cumulative time (in ticks) in various power states (Tick)
system.victimcache.tags.tagsInUse            4.485071                       # Average ticks per tags in use ((Tick/Count))
system.victimcache.tags.totalRefs              104331                       # Total number of references to valid blocks. (Count)
system.victimcache.tags.sampledRefs             54766                       # Sample count of references to valid blocks. (Count)
system.victimcache.tags.avgRefs              1.905032                       # Average number of references to valid blocks. ((Count/Count))
system.victimcache.tags.warmupTick           47394000                       # The tick when the warmup percentage was hit. (Tick)
system.victimcache.tags.occupancies::writebacks     4.485071                       # Average occupied blocks per tick, per requestor ((Count/Tick))
system.victimcache.tags.avgOccs::writebacks     0.560634                       # Average percentage of cache occupancy ((Ratio/Tick))
system.victimcache.tags.avgOccs::total       0.560634                       # Average percentage of cache occupancy ((Ratio/Tick))
system.victimcache.tags.occupanciesTaskId::1024            8                       # Occupied blocks per task id (Count)
system.victimcache.tags.ageTaskId_1024::0            8                       # Occupied blocks per task id, per block age (Count)
system.victimcache.tags.ratioOccsTaskId::1024            1                       # Ratio of occupied blocks and all blocks, per task id (Ratio)
system.victimcache.tags.tagAccesses            933294                       # Number of tag accesses (Count)
system.victimcache.tags.dataAccesses           933294                       # Number of data accesses (Count)
system.victimcache.tags.power_state.pwrStateResidencyTicks::UNDEFINED    230784000                       # Cumulative time (in ticks) in various power states (Tick)
system.workload.inst.arm                            0                       # number of arm instructions executed (Count)
system.workload.inst.quiesce                        0                       # number of quiesce instructions executed (Count)

---------- End Simulation Statistics   ----------
