
---------- Begin Simulation Statistics ----------
simSeconds                                   0.002346                       # Number of seconds simulated (Second)
simTicks                                   2346262000                       # Number of ticks simulated (Tick)
finalTick                                  2346262000                       # Number of ticks from beginning of simulation (restored from checkpoints and never reset) (Tick)
simFreq                                  1000000000000                       # The number of ticks per simulated second ((Tick/Second))
hostSeconds                                      0.41                       # Real time elapsed on the host (Second)
hostTickRate                               5666327304                       # The number of ticks simulated per host second (ticks/s) ((Tick/Second))
hostMemory                                     643688                       # Number of bytes of host memory used (Byte)
simInsts                                       123099                       # Number of instructions simulated (Count)
simOps                                         245702                       # Number of ops (including micro ops) simulated (Count)
hostInstRate                                   297211                       # Simulator instruction rate (inst/s) ((Count/Second))
hostOpRate                                     593208                       # Simulator op (including micro ops) rate (op/s) ((Count/Second))
system.clk_domain.clock                          1000                       # Clock period in ticks (Tick)
system.clk_domain.voltage_domain.voltage            1                       # Voltage in Volts (Volt)
system.cpu.numCycles                          2346262                       # Number of cpu cycles simulated (Cycle)
system.cpu.numWorkItemsStarted                      0                       # Number of work items this cpu started (Count)
system.cpu.numWorkItemsCompleted                    0                       # Number of work items this cpu completed (Count)
system.cpu.dcache.demandHits::cpu.data           2953                       # number of demand (read+write) hits (Count)
system.cpu.dcache.demandHits::total              2953                       # number of demand (read+write) hits (Count)
system.cpu.dcache.overallHits::cpu.data          2953                       # number of overall hits (Count)
system.cpu.dcache.overallHits::total             2953                       # number of overall hits (Count)
system.cpu.dcache.demandMisses::cpu.data        78593                       # number of demand (read+write) misses (Count)
system.cpu.dcache.demandMisses::total           78593                       # number of demand (read+write) misses (Count)
system.cpu.dcache.overallMisses::cpu.data        78593                       # number of overall misses (Count)
system.cpu.dcache.overallMisses::total          78593                       # number of overall misses (Count)
system.cpu.dcache.demandMissLatency::cpu.data   2084273000                       # number of demand (read+write) miss ticks (Tick)
system.cpu.dcache.demandMissLatency::total   2084273000                       # number of demand (read+write) miss ticks (Tick)
system.cpu.dcache.overallMissLatency::cpu.data   2084273000                       # number of overall miss ticks (Tick)
system.cpu.dcache.overallMissLatency::total   2084273000                       # number of overall miss ticks (Tick)
system.cpu.dcache.demandAccesses::cpu.data        81546                       # number of demand (read+write) accesses (Count)
system.cpu.dcache.demandAccesses::total         81546                       # number of demand (read+write) accesses (Count)
system.cpu.dcache.overallAccesses::cpu.data        81546                       # number of overall (read+write) accesses (Count)
system.cpu.dcache.overallAccesses::total        81546                       # number of overall (read+write) accesses (Count)
system.cpu.dcache.demandMissRate::cpu.data     0.963787                       # miss rate for demand accesses (Ratio)
system.cpu.dcache.demandMissRate::total      0.963787                       # miss rate for demand accesses (Ratio)
system.cpu.dcache.overallMissRate::cpu.data     0.963787                       # miss rate for overall accesses (Ratio)
system.cpu.dcache.overallMissRate::total     0.963787                       # miss rate for overall accesses (Ratio)
system.cpu.dcache.demandAvgMissLatency::cpu.data 26519.830010                       # average overall miss latency ((Cycle/Count))
system.cpu.dcache.demandAvgMissLatency::total 26519.830010                       # average overall miss latency ((Cycle/Count))
system.cpu.dcache.overallAvgMissLatency::cpu.data 26519.830010                       # average overall miss latency ((Cycle/Count))
system.cpu.dcache.overallAvgMissLatency::total 26519.830010                       # average overall miss latency ((Cycle/Count))
system.cpu.dcache.blockedCycles::no_mshrs            0                       # number of cycles access was blocked (Cycle)
system.cpu.dcache.blockedCycles::no_targets            0                       # number of cycles access was blocked (Cycle)
system.cpu.dcache.blockedCauses::no_mshrs            0                       # number of times access was blocked (Count)
system.cpu.dcache.blockedCauses::no_targets            0                       # number of times access was blocked (Count)
system.cpu.dcache.avgBlocked::no_mshrs            nan                       # average number of cycles each access was blocked ((Cycle/Count))
system.cpu.dcache.avgBlocked::no_targets          nan                       # average number of cycles each access was blocked ((Cycle/Count))
system.cpu.dcache.writebacks::writebacks        78320                       # number of writebacks (Count)
system.cpu.dcache.writebacks::total             78320                       # number of writebacks (Count)
system.cpu.dcache.demandMshrMisses::cpu.data        78593                       # number of demand (read+write) MSHR misses (Count)
system.cpu.dcache.demandMshrMisses::total        78593                       # number of demand (read+write) MSHR misses (Count)
system.cpu.dcache.overallMshrMisses::cpu.data        78593                       # number of overall MSHR misses (Count)
system.cpu.dcache.overallMshrMisses::total        78593                       # number of overall MSHR misses (Count)
system.cpu.dcache.demandMshrMissLatency::cpu.data   1927087000                       # number of demand (read+write) MSHR miss ticks (Tick)
system.cpu.dcache.demandMshrMissLatency::total   1927087000                       # number of demand (read+write) MSHR miss ticks (Tick)
system.cpu.dcache.overallMshrMissLatency::cpu.data   1927087000                       # number of overall MSHR miss ticks (Tick)
system.cpu.dcache.overallMshrMissLatency::total   1927087000                       # number of overall MSHR miss ticks (Tick)
system.cpu.dcache.demandMshrMissRate::cpu.data     0.963787                       # mshr miss ratio for demand accesses (Ratio)
system.cpu.dcache.demandMshrMissRate::total     0.963787                       # mshr miss ratio for demand accesses (Ratio)
system.cpu.dcache.overallMshrMissRate::cpu.data     0.963787                       # mshr miss ratio for overall accesses (Ratio)
system.cpu.dcache.overallMshrMissRate::total     0.963787                       # mshr miss ratio for overall accesses (Ratio)
system.cpu.dcache.demandAvgMshrMissLatency::cpu.data 24519.830010                       # average overall mshr miss latency ((Cycle/Count))
system.cpu.dcache.demandAvgMshrMissLatency::total 24519.830010                       # average overall mshr miss latency ((Cycle/Count))
system.cpu.dcache.overallAvgMshrMissLatency::cpu.data 24519.830010                       # average overall mshr miss latency ((Cycle/Count))
system.cpu.dcache.overallAvgMshrMissLatency::total 24519.830010                       # average overall mshr miss latency ((Cycle/Count))
system.cpu.dcache.replacements                  78320                       # number of replacements (Count)
system.cpu.dcache.ReadReq.hits::cpu.data         1451                       # number of ReadReq hits (Count)
system.cpu.dcache.ReadReq.hits::total            1451                       # number of ReadReq hits (Count)
system.cpu.dcache.ReadReq.misses::cpu.data        78448                       # number of ReadReq misses (Count)
system.cpu.dcache.ReadReq.misses::total         78448                       # number of ReadReq misses (Count)
system.cpu.dcache.ReadReq.missLatency::cpu.data   2070236000                       # number of ReadReq miss ticks (Tick)
system.cpu.dcache.ReadReq.missLatency::total   2070236000                       # number of ReadReq miss ticks (Tick)
system.cpu.dcache.ReadReq.accesses::cpu.data        79899                       # number of ReadReq accesses(hits+misses) (Count)
system.cpu.dcache.ReadReq.accesses::total        79899                       # number of ReadReq accesses(hits+misses) (Count)
system.cpu.dcache.ReadReq.missRate::cpu.data     0.981840                       # miss rate for ReadReq accesses (Ratio)
system.cpu.dcache.ReadReq.missRate::total     0.981840                       # miss rate for ReadReq accesses (Ratio)
system.cpu.dcache.ReadReq.avgMissLatency::cpu.data 26389.914338                       # average ReadReq miss latency ((Tick/Count))
system.cpu.dcache.ReadReq.avgMissLatency::total 26389.914338                       # average ReadReq miss latency ((Tick/Count))
system.cpu.dcache.ReadReq.mshrMisses::cpu.data        78448                       # number of ReadReq MSHR misses (Count)
system.cpu.dcache.ReadReq.mshrMisses::total        78448                       # number of ReadReq MSHR misses (Count)
system.cpu.dcache.ReadReq.mshrMissLatency::cpu.data   1913340000                       # number of ReadReq MSHR miss ticks (Tick)
system.cpu.dcache.ReadReq.mshrMissLatency::total   1913340000                       # number of ReadReq MSHR miss ticks (Tick)
system.cpu.dcache.ReadReq.mshrMissRate::cpu.data     0.981840                       # mshr miss rate for ReadReq accesses (Ratio)
system.cpu.dcache.ReadReq.mshrMissRate::total     0.981840                       # mshr miss rate for ReadReq accesses (Ratio)
system.cpu.dcache.ReadReq.avgMshrMissLatency::cpu.data 24389.914338                       # average ReadReq mshr miss latency ((Tick/Count))
system.cpu.dcache.ReadReq.avgMshrMissLatency::total 24389.914338                       # average ReadReq mshr miss latency ((Tick/Count))
system.cpu.dcache.WriteReq.hits::cpu.data         1502                       # number of WriteReq hits (Count)
system.cpu.dcache.WriteReq.hits::total           1502                       # number of WriteReq hits (Count)
system.cpu.dcache.WriteReq.misses::cpu.data          145                       # number of WriteReq misses (Count)
system.cpu.dcache.WriteReq.misses::total          145                       # number of WriteReq misses (Count)
system.cpu.dcache.WriteReq.missLatency::cpu.data     14037000                       # number of WriteReq miss ticks (Tick)
system.cpu.dcache.WriteReq.missLatency::total     14037000                       # number of WriteReq miss ticks (Tick)
system.cpu.dcache.WriteReq.accesses::cpu.data         1647                       # number of WriteReq accesses(hits+misses) (Count)
system.cpu.dcache.WriteReq.accesses::total         1647                       # number of WriteReq accesses(hits+misses) (Count)
system.cpu.dcache.WriteReq.missRate::cpu.data     0.088039                       # miss rate for WriteReq accesses (Ratio)
system.cpu.dcache.WriteReq.missRate::total     0.088039                       # miss rate for WriteReq accesses (Ratio)
system.cpu.dcache.WriteReq.avgMissLatency::cpu.data 96806.896552                       # average WriteReq miss latency ((Tick/Count))
system.cpu.dcache.WriteReq.avgMissLatency::total 96806.896552                       # average WriteReq miss latency ((Tick/Count))
system.cpu.dcache.WriteReq.mshrMisses::cpu.data          145                       # number of WriteReq MSHR misses (Count)
system.cpu.dcache.WriteReq.mshrMisses::total          145                       # number of WriteReq MSHR misses (Count)
system.cpu.dcache.WriteReq.mshrMissLatency::cpu.data     13747000                       # number of WriteReq MSHR miss ticks (Tick)
system.cpu.dcache.WriteReq.mshrMissLatency::total     13747000                       # number of WriteReq MSHR miss ticks (Tick)
system.cpu.dcache.WriteReq.mshrMissRate::cpu.data     0.088039                       # mshr miss rate for WriteReq accesses (Ratio)
system.cpu.dcache.WriteReq.mshrMissRate::total     0.088039                       # mshr miss rate for WriteReq accesses (Ratio)
system.cpu.dcache.WriteReq.avgMshrMissLatency::cpu.data 94806.896552                       # average WriteReq mshr miss latency ((Tick/Count))
system.cpu.dcache.WriteReq.avgMshrMissLatency::total 94806.896552                       # average WriteReq mshr miss latency ((Tick/Count))
system.cpu.dcache.power_state.pwrStateResidencyTicks::UNDEFINED   2346262000                       # Cumulative time (in ticks) in various power states (Tick)
system.cpu.dcache.tags.tagsInUse           229.859807                       # Average ticks per tags in use ((Tick/Count))
system.cpu.dcache.tags.totalRefs                81546                       # Total number of references to valid blocks. (Count)
system.cpu.dcache.tags.sampledRefs              78569                       # Sample count of references to valid blocks. (Count)
system.cpu.dcache.tags.avgRefs               1.037890                       # Average number of references to valid blocks. ((Count/Count))
system.cpu.dcache.tags.warmupTick              228000                       # The tick when the warmup percentage was hit. (Tick)
system.cpu.dcache.tags.occupancies::cpu.data   229.859807                       # Average occupied blocks per tick, per requestor ((Count/Tick))
system.cpu.dcache.tags.avgOccs::cpu.data     0.224472                       # Average percentage of cache occupancy ((Ratio/Tick))
system.cpu.dcache.tags.avgOccs::total        0.224472                       # Average percentage of cache occupancy ((Ratio/Tick))
system.cpu.dcache.tags.occupanciesTaskId::1024          249                       # Occupied blocks per task id (Count)
system.cpu.dcache.tags.ageTaskId_1024::0           19                       # Occupied blocks per task id, per block age (Count)
system.cpu.dcache.tags.ageTaskId_1024::1           14                       # Occupied blocks per task id, per block age (Count)
system.cpu.dcache.tags.ageTaskId_1024::3          216                       # Occupied blocks per task id, per block age (Count)
system.cpu.dcache.tags.ratioOccsTaskId::1024     0.243164                       # Ratio of occupied blocks and all blocks, per task id (Ratio)
system.cpu.dcache.tags.tagAccesses             241661                       # Number of tag accesses (Count)
system.cpu.dcache.tags.dataAccesses            241661                       # Number of data accesses (Count)
system.cpu.dcache.tags.power_state.pwrStateResidencyTicks::UNDEFINED   2346262000                       # Cumulative time (in ticks) in various power states (Tick)
system.cpu.exec_context.thread_0.numInsts       123099                       # Number of instructions committed (Count)
system.cpu.exec_context.thread_0.numOps        245702                       # Number of ops (including micro ops) committed (Count)
system.cpu.exec_context.thread_0.numIntAluAccesses       171225                       # Number of integer alu accesses (Count)
system.cpu.exec_context.thread_0.numFpAluAccesses       148625                       # Number of float alu accesses (Count)
system.cpu.exec_context.thread_0.numVecAluAccesses            0                       # Number of vector alu accesses (Count)
system.cpu.exec_context.thread_0.numCallsReturns          296                       # Number of times a function call or return occured (Count)
system.cpu.exec_context.thread_0.numCondCtrlInsts         9483                       # Number of instructions that are conditional controls (Count)
system.cpu.exec_context.thread_0.numIntInsts       171225                       # Number of integer instructions (Count)
system.cpu.exec_context.thread_0.numFpInsts       148625                       # Number of float instructions (Count)
system.cpu.exec_context.thread_0.numVecInsts            0                       # Number of vector instructions (Count)
system.cpu.exec_context.thread_0.numIntRegReads       358141                       # Number of times the integer registers were read (Count)
system.cpu.exec_context.thread_0.numIntRegWrites        85863                       # Number of times the integer registers were written (Count)
system.cpu.exec_context.thread_0.numFpRegReads       222531                       # Number of times the floating registers were read (Count)
system.cpu.exec_context.thread_0.numFpRegWrites       148103                       # Number of times the floating registers were written (Count)
system.cpu.exec_context.thread_0.numVecRegReads            0                       # Number of times the vector registers were read (Count)
system.cpu.exec_context.thread_0.numVecRegWrites            0                       # Number of times the vector registers were written (Count)
system.cpu.exec_context.thread_0.numVecPredRegReads            0                       # Number of times the predicate registers were read (Count)
system.cpu.exec_context.thread_0.numVecPredRegWrites            0                       # Number of times the predicate registers were written (Count)
system.cpu.exec_context.thread_0.numCCRegReads        57846                       # Number of times the CC registers were read (Count)
system.cpu.exec_context.thread_0.numCCRegWrites        54475                       # Number of times the CC registers were written (Count)
system.cpu.exec_context.thread_0.numMemRefs        76937                       # Number of memory refs (Count)
system.cpu.exec_context.thread_0.numLoadInsts        75289                       # Number of load instructions (Count)
system.cpu.exec_context.thread_0.numStoreInsts         1648                       # Number of store instructions (Count)
system.cpu.exec_context.thread_0.numIdleCycles     0.001000                       # Number of idle cycles (Cycle)
system.cpu.exec_context.thread_0.numBusyCycles 2346261.999000                       # Number of busy cycles (Cycle)
system.cpu.exec_context.thread_0.notIdleFraction     1.000000                       # Percentage of non-idle cycles (Ratio)
system.cpu.exec_context.thread_0.idleFraction     0.000000                       # Percentage of idle cycles (Ratio)
system.cpu.exec_context.thread_0.numBranches         9936                       # Number of branches fetched (Count)
system.cpu.exec_context.thread_0.statExecutedInstType::No_OpClass          195      0.08%      0.08% # Class of executed instruction. (Count)
system.cpu.exec_context.thread_0.statExecutedInstType::IntAlu        94337     38.39%     38.47% # Class of executed instruction. (Count)
system.cpu.exec_context.thread_0.statExecutedInstType::IntMult            5      0.00%     38.47% # Class of executed instruction. (Count)
system.cpu.exec_context.thread_0.statExecutedInstType::IntDiv           21      0.01%     38.48% # Class of executed instruction. (Count)
system.cpu.exec_context.thread_0.statExecutedInstType::FloatAdd          135      0.05%     38.54% # Class of executed instruction. (Count)
system.cpu.exec_context.thread_0.statExecutedInstType::FloatCmp            0      0.00%     38.54% # Class of executed instruction. (Count)
system.cpu.exec_context.thread_0.statExecutedInstType::FloatCvt            0      0.00%     38.54% # Class of executed instruction. (Count)
system.cpu.exec_context.thread_0.statExecutedInstType::FloatMult            0      0.00%     38.54% # Class of executed instruction. (Count)
system.cpu.exec_context.thread_0.statExecutedInstType::FloatMultAcc            0      0.00%     38.54% # Class of executed instruction. (Count)
system.cpu.exec_context.thread_0.statExecutedInstType::FloatDiv            0      0.00%     38.54% # Class of executed instruction. (Count)
system.cpu.exec_context.thread_0.statExecutedInstType::FloatMisc            0      0.00%     38.54% # Class of executed instruction. (Count)
system.cpu.exec_context.thread_0.statExecutedInstType::FloatSqrt            0      0.00%     38.54% # Class of executed instruction. (Count)
system.cpu.exec_context.thread_0.statExecutedInstType::SimdAdd            0      0.00%     38.54% # Class of executed instruction. (Count)
system.cpu.exec_context.thread_0.statExecutedInstType::SimdAddAcc            0      0.00%     38.54% # Class of executed instruction. (Count)
system.cpu.exec_context.thread_0.statExecutedInstType::SimdAlu           96      0.04%     38.58% # Class of executed instruction. (Count)
system.cpu.exec_context.thread_0.statExecutedInstType::SimdCmp            0      0.00%     38.58% # Class of executed instruction. (Count)
system.cpu.exec_context.thread_0.statExecutedInstType::SimdCvt           46      0.02%     38.60% # Class of executed instruction. (Count)
system.cpu.exec_context.thread_0.statExecutedInstType::SimdMisc          215      0.09%     38.68% # Class of executed instruction. (Count)
system.cpu.exec_context.thread_0.statExecutedInstType::SimdMult            0      0.00%     38.68% # Class of executed instruction. (Count)
system.cpu.exec_context.thread_0.statExecutedInstType::SimdMultAcc            0      0.00%     38.68% # Class of executed instruction. (Count)
system.cpu.exec_context.thread_0.statExecutedInstType::SimdShift            0      0.00%     38.68% # Class of executed instruction. (Count)
system.cpu.exec_context.thread_0.statExecutedInstType::SimdShiftAcc            0      0.00%     38.68% # Class of executed instruction. (Count)
system.cpu.exec_context.thread_0.statExecutedInstType::SimdDiv            0      0.00%     38.68% # Class of executed instruction. (Count)
system.cpu.exec_context.thread_0.statExecutedInstType::SimdSqrt            0      0.00%     38.68% # Class of executed instruction. (Count)
system.cpu.exec_context.thread_0.statExecutedInstType::SimdFloatAdd        73728     30.01%     68.69% # Class of executed instruction. (Count)
system.cpu.exec_context.thread_0.statExecutedInstType::SimdFloatAlu            0      0.00%     68.69% # Class of executed instruction. (Count)
system.cpu.exec_context.thread_0.statExecutedInstType::SimdFloatCmp            0      0.00%     68.69% # Class of executed instruction. (Count)
system.cpu.exec_context.thread_0.statExecutedInstType::SimdFloatCvt            0      0.00%     68.69% # Class of executed instruction. (Count)
system.cpu.exec_context.thread_0.statExecutedInstType::SimdFloatDiv            0      0.00%     68.69% # Class of executed instruction. (Count)
system.cpu.exec_context.thread_0.statExecutedInstType::SimdFloatMisc            0      0.00%     68.69% # Class of executed instruction. (Count)
system.cpu.exec_context.thread_0.statExecutedInstType::SimdFloatMult            0      0.00%     68.69% # Class of executed instruction. (Count)
system.cpu.exec_context.thread_0.statExecutedInstType::SimdFloatMultAcc            0      0.00%     68.69% # Class of executed instruction. (Count)
system.cpu.exec_context.thread_0.statExecutedInstType::SimdFloatSqrt            0      0.00%     68.69% # Class of executed instruction. (Count)
system.cpu.exec_context.thread_0.statExecutedInstType::SimdReduceAdd            0      0.00%     68.69% # Class of executed instruction. (Count)
system.cpu.exec_context.thread_0.statExecutedInstType::SimdReduceAlu            0      0.00%     68.69% # Class of executed instruction. (Count)
system.cpu.exec_context.thread_0.statExecutedInstType::SimdReduceCmp            0      0.00%     68.69% # Class of executed instruction. (Count)
system.cpu.exec_context.thread_0.statExecutedInstType::SimdFloatReduceAdd            0      0.00%     68.69% # Class of executed instruction. (Count)
system.cpu.exec_context.thread_0.statExecutedInstType::SimdFloatReduceCmp            0      0.00%     68.69% # Class of executed instruction. (Count)
system.cpu.exec_context.thread_0.statExecutedInstType::SimdAes            0      0.00%     68.69% # Class of executed instruction. (Count)
system.cpu.exec_context.thread_0.statExecutedInstType::SimdAesMix            0      0.00%     68.69% # Class of executed instruction. (Count)
system.cpu.exec_context.thread_0.statExecutedInstType::SimdSha1Hash            0      0.00%     68.69% # Class of executed instruction. (Count)
system.cpu.exec_context.thread_0.statExecutedInstType::SimdSha1Hash2            0      0.00%     68.69% # Class of executed instruction. (Count)
system.cpu.exec_context.thread_0.statExecutedInstType::SimdSha256Hash            0      0.00%     68.69% # Class of executed instruction. (Count)
system.cpu.exec_context.thread_0.statExecutedInstType::SimdSha256Hash2            0      0.00%     68.69% # Class of executed instruction. (Count)
system.cpu.exec_context.thread_0.statExecutedInstType::SimdShaSigma2            0      0.00%     68.69% # Class of executed instruction. (Count)
system.cpu.exec_context.thread_0.statExecutedInstType::SimdShaSigma3            0      0.00%     68.69% # Class of executed instruction. (Count)
system.cpu.exec_context.thread_0.statExecutedInstType::SimdPredAlu            0      0.00%     68.69% # Class of executed instruction. (Count)
system.cpu.exec_context.thread_0.statExecutedInstType::MemRead         1499      0.61%     69.30% # Class of executed instruction. (Count)
system.cpu.exec_context.thread_0.statExecutedInstType::MemWrite         1172      0.48%     69.78% # Class of executed instruction. (Count)
system.cpu.exec_context.thread_0.statExecutedInstType::FloatMemRead        73790     30.03%     99.81% # Class of executed instruction. (Count)
system.cpu.exec_context.thread_0.statExecutedInstType::FloatMemWrite          476      0.19%    100.00% # Class of executed instruction. (Count)
system.cpu.exec_context.thread_0.statExecutedInstType::IprAccess            0      0.00%    100.00% # Class of executed instruction. (Count)
system.cpu.exec_context.thread_0.statExecutedInstType::InstPrefetch            0      0.00%    100.00% # Class of executed instruction. (Count)
system.cpu.exec_context.thread_0.statExecutedInstType::total       245715                       # Class of executed instruction. (Count)
system.cpu.icache.demandHits::cpu.inst         166357                       # number of demand (read+write) hits (Count)
system.cpu.icache.demandHits::total            166357                       # number of demand (read+write) hits (Count)
system.cpu.icache.overallHits::cpu.inst        166357                       # number of overall hits (Count)
system.cpu.icache.overallHits::total           166357                       # number of overall hits (Count)
system.cpu.icache.demandMisses::cpu.inst          409                       # number of demand (read+write) misses (Count)
system.cpu.icache.demandMisses::total             409                       # number of demand (read+write) misses (Count)
system.cpu.icache.overallMisses::cpu.inst          409                       # number of overall misses (Count)
system.cpu.icache.overallMisses::total            409                       # number of overall misses (Count)
system.cpu.icache.demandMissLatency::cpu.inst     43183000                       # number of demand (read+write) miss ticks (Tick)
system.cpu.icache.demandMissLatency::total     43183000                       # number of demand (read+write) miss ticks (Tick)
system.cpu.icache.overallMissLatency::cpu.inst     43183000                       # number of overall miss ticks (Tick)
system.cpu.icache.overallMissLatency::total     43183000                       # number of overall miss ticks (Tick)
system.cpu.icache.demandAccesses::cpu.inst       166766                       # number of demand (read+write) accesses (Count)
system.cpu.icache.demandAccesses::total        166766                       # number of demand (read+write) accesses (Count)
system.cpu.icache.overallAccesses::cpu.inst       166766                       # number of overall (read+write) accesses (Count)
system.cpu.icache.overallAccesses::total       166766                       # number of overall (read+write) accesses (Count)
system.cpu.icache.demandMissRate::cpu.inst     0.002453                       # miss rate for demand accesses (Ratio)
system.cpu.icache.demandMissRate::total      0.002453                       # miss rate for demand accesses (Ratio)
system.cpu.icache.overallMissRate::cpu.inst     0.002453                       # miss rate for overall accesses (Ratio)
system.cpu.icache.overallMissRate::total     0.002453                       # miss rate for overall accesses (Ratio)
system.cpu.icache.demandAvgMissLatency::cpu.inst 105581.907090                       # average overall miss latency ((Cycle/Count))
system.cpu.icache.demandAvgMissLatency::total 105581.907090                       # average overall miss latency ((Cycle/Count))
system.cpu.icache.overallAvgMissLatency::cpu.inst 105581.907090                       # average overall miss latency ((Cycle/Count))
system.cpu.icache.overallAvgMissLatency::total 105581.907090                       # average overall miss latency ((Cycle/Count))
system.cpu.icache.blockedCycles::no_mshrs            0                       # number of cycles access was blocked (Cycle)
system.cpu.icache.blockedCycles::no_targets            0                       # number of cycles access was blocked (Cycle)
system.cpu.icache.blockedCauses::no_mshrs            0                       # number of times access was blocked (Count)
system.cpu.icache.blockedCauses::no_targets            0                       # number of times access was blocked (Count)
system.cpu.icache.avgBlocked::no_mshrs            nan                       # average number of cycles each access was blocked ((Cycle/Count))
system.cpu.icache.avgBlocked::no_targets          nan                       # average number of cycles each access was blocked ((Cycle/Count))
system.cpu.icache.demandMshrMisses::cpu.inst          409                       # number of demand (read+write) MSHR misses (Count)
system.cpu.icache.demandMshrMisses::total          409                       # number of demand (read+write) MSHR misses (Count)
system.cpu.icache.overallMshrMisses::cpu.inst          409                       # number of overall MSHR misses (Count)
system.cpu.icache.overallMshrMisses::total          409                       # number of overall MSHR misses (Count)
system.cpu.icache.demandMshrMissLatency::cpu.inst     42365000                       # number of demand (read+write) MSHR miss ticks (Tick)
system.cpu.icache.demandMshrMissLatency::total     42365000                       # number of demand (read+write) MSHR miss ticks (Tick)
system.cpu.icache.overallMshrMissLatency::cpu.inst     42365000                       # number of overall MSHR miss ticks (Tick)
system.cpu.icache.overallMshrMissLatency::total     42365000                       # number of overall MSHR miss ticks (Tick)
system.cpu.icache.demandMshrMissRate::cpu.inst     0.002453                       # mshr miss ratio for demand accesses (Ratio)
system.cpu.icache.demandMshrMissRate::total     0.002453                       # mshr miss ratio for demand accesses (Ratio)
system.cpu.icache.overallMshrMissRate::cpu.inst     0.002453                       # mshr miss ratio for overall accesses (Ratio)
system.cpu.icache.overallMshrMissRate::total     0.002453                       # mshr miss ratio for overall accesses (Ratio)
system.cpu.icache.demandAvgMshrMissLatency::cpu.inst 103581.907090                       # average overall mshr miss latency ((Cycle/Count))
system.cpu.icache.demandAvgMshrMissLatency::total 103581.907090                       # average overall mshr miss latency ((Cycle/Count))
system.cpu.icache.overallAvgMshrMissLatency::cpu.inst 103581.907090                       # average overall mshr miss latency ((Cycle/Count))
system.cpu.icache.overallAvgMshrMissLatency::total 103581.907090                       # average overall mshr miss latency ((Cycle/Count))
system.cpu.icache.replacements                    171                       # number of replacements (Count)
system.cpu.icache.ReadReq.hits::cpu.inst       166357                       # number of ReadReq hits (Count)
system.cpu.icache.ReadReq.hits::total          166357                       # number of ReadReq hits (Count)
system.cpu.icache.ReadReq.misses::cpu.inst          409                       # number of ReadReq misses (Count)
system.cpu.icache.ReadReq.misses::total           409                       # number of ReadReq misses (Count)
system.cpu.icache.ReadReq.missLatency::cpu.inst     43183000                       # number of ReadReq miss ticks (Tick)
system.cpu.icache.ReadReq.missLatency::total     43183000                       # number of ReadReq miss ticks (Tick)
system.cpu.icache.ReadReq.accesses::cpu.inst       166766                       # number of ReadReq accesses(hits+misses) (Count)
system.cpu.icache.ReadReq.accesses::total       166766                       # number of ReadReq accesses(hits+misses) (Count)
system.cpu.icache.ReadReq.missRate::cpu.inst     0.002453                       # miss rate for ReadReq accesses (Ratio)
system.cpu.icache.ReadReq.missRate::total     0.002453                       # miss rate for ReadReq accesses (Ratio)
system.cpu.icache.ReadReq.avgMissLatency::cpu.inst 105581.907090                       # average ReadReq miss latency ((Tick/Count))
system.cpu.icache.ReadReq.avgMissLatency::total 105581.907090                       # average ReadReq miss latency ((Tick/Count))
system.cpu.icache.ReadReq.mshrMisses::cpu.inst          409                       # number of ReadReq MSHR misses (Count)
system.cpu.icache.ReadReq.mshrMisses::total          409                       # number of ReadReq MSHR misses (Count)
system.cpu.icache.ReadReq.mshrMissLatency::cpu.inst     42365000                       # number of ReadReq MSHR miss ticks (Tick)
system.cpu.icache.ReadReq.mshrMissLatency::total     42365000                       # number of ReadReq MSHR miss ticks (Tick)
system.cpu.icache.ReadReq.mshrMissRate::cpu.inst     0.002453                       # mshr miss rate for ReadReq accesses (Ratio)
system.cpu.icache.ReadReq.mshrMissRate::total     0.002453                       # mshr miss rate for ReadReq accesses (Ratio)
system.cpu.icache.ReadReq.avgMshrMissLatency::cpu.inst 103581.907090                       # average ReadReq mshr miss latency ((Tick/Count))
system.cpu.icache.ReadReq.avgMshrMissLatency::total 103581.907090                       # average ReadReq mshr miss latency ((Tick/Count))
system.cpu.icache.power_state.pwrStateResidencyTicks::UNDEFINED   2346262000                       # Cumulative time (in ticks) in various power states (Tick)
system.cpu.icache.tags.tagsInUse           229.478474                       # Average ticks per tags in use ((Tick/Count))
system.cpu.icache.tags.totalRefs               166766                       # Total number of references to valid blocks. (Count)
system.cpu.icache.tags.sampledRefs                409                       # Sample count of references to valid blocks. (Count)
system.cpu.icache.tags.avgRefs             407.740831                       # Average number of references to valid blocks. ((Count/Count))
system.cpu.icache.tags.warmupTick              109000                       # The tick when the warmup percentage was hit. (Tick)
system.cpu.icache.tags.occupancies::cpu.inst   229.478474                       # Average occupied blocks per tick, per requestor ((Count/Tick))
system.cpu.icache.tags.avgOccs::cpu.inst     0.896400                       # Average percentage of cache occupancy ((Ratio/Tick))
system.cpu.icache.tags.avgOccs::total        0.896400                       # Average percentage of cache occupancy ((Ratio/Tick))
system.cpu.icache.tags.occupanciesTaskId::1024          238                       # Occupied blocks per task id (Count)
system.cpu.icache.tags.ageTaskId_1024::0           36                       # Occupied blocks per task id, per block age (Count)
system.cpu.icache.tags.ageTaskId_1024::3          202                       # Occupied blocks per task id, per block age (Count)
system.cpu.icache.tags.ratioOccsTaskId::1024     0.929688                       # Ratio of occupied blocks and all blocks, per task id (Ratio)
system.cpu.icache.tags.tagAccesses             333941                       # Number of tag accesses (Count)
system.cpu.icache.tags.dataAccesses            333941                       # Number of data accesses (Count)
system.cpu.icache.tags.power_state.pwrStateResidencyTicks::UNDEFINED   2346262000                       # Cumulative time (in ticks) in various power states (Tick)
system.cpu.interrupts.clk_domain.clock          16000                       # Clock period in ticks (Tick)
system.cpu.mmu.dtb.rdAccesses                   79900                       # TLB accesses on read requests (Count)
system.cpu.mmu.dtb.wrAccesses                    1649                       # TLB accesses on write requests (Count)
system.cpu.mmu.dtb.rdMisses                        20                       # TLB misses on read requests (Count)
system.cpu.mmu.dtb.wrMisses                         9                       # TLB misses on write requests (Count)
system.cpu.mmu.dtb.walker.power_state.pwrStateResidencyTicks::UNDEFINED   2346262000                       # Cumulative time (in ticks) in various power states (Tick)
system.cpu.mmu.itb.rdAccesses                       0                       # TLB accesses on read requests (Count)
system.cpu.mmu.itb.wrAccesses                  166766                       # TLB accesses on write requests (Count)
system.cpu.mmu.itb.rdMisses                         0                       # TLB misses on read requests (Count)
system.cpu.mmu.itb.wrMisses                        38                       # TLB misses on write requests (Count)
system.cpu.mmu.itb.walker.power_state.pwrStateResidencyTicks::UNDEFINED   2346262000                       # Cumulative time (in ticks) in various power states (Tick)
system.cpu.power_state.pwrStateResidencyTicks::ON   2346262000                       # Cumulative time (in ticks) in various power states (Tick)
system.cpu.thread_0.numInsts                        0                       # Number of Instructions committed (Count)
system.cpu.thread_0.numOps                          0                       # Number of Ops committed (Count)
system.cpu.thread_0.numMemRefs                      0                       # Number of Memory References (Count)
system.cpu.workload.numSyscalls                    10                       # Number of system calls (Count)
system.l2_victimbus.transDist::ReadResp           602                       # Transaction distribution (Count)
system.l2_victimbus.transDist::WritebackClean          723                       # Transaction distribution (Count)
system.l2_victimbus.transDist::CleanEvict          171                       # Transaction distribution (Count)
system.l2_victimbus.transDist::UpgradeReq           24                       # Transaction distribution (Count)
system.l2_victimbus.transDist::UpgradeResp           24                       # Transaction distribution (Count)
system.l2_victimbus.transDist::ReadExReq          121                       # Transaction distribution (Count)
system.l2_victimbus.transDist::ReadExResp          121                       # Transaction distribution (Count)
system.l2_victimbus.transDist::ReadCleanReq          602                       # Transaction distribution (Count)
system.l2_victimbus.pktCount_system.l2cache.mem_side_port::system.l2_victimcache.cpu_side_port         1665                       # Packet count per connected requestor and responder (Count)
system.l2_victimbus.pktSize_system.l2cache.mem_side_port::system.l2_victimcache.cpu_side_port        46272                       # Cumulative packet size per connected requestor and responder (Byte)
system.l2_victimbus.snoops                        723                       # Total snoops (Count)
system.l2_victimbus.snoopTraffic                46272                       # Total snoop traffic (Byte)
system.l2_victimbus.snoopFanout::samples         1470                       # Request fanout histogram (Count)
system.l2_victimbus.snoopFanout::mean        0.491837                       # Request fanout histogram (Count)
system.l2_victimbus.snoopFanout::stdev       0.500103                       # Request fanout histogram (Count)
system.l2_victimbus.snoopFanout::underflows            0      0.00%      0.00% # Request fanout histogram (Count)
system.l2_victimbus.snoopFanout::0                747     50.82%     50.82% # Request fanout histogram (Count)
system.l2_victimbus.snoopFanout::1                723     49.18%    100.00% # Request fanout histogram (Count)
system.l2_victimbus.snoopFanout::overflows            0      0.00%    100.00% # Request fanout histogram (Count)
system.l2_victimbus.snoopFanout::min_value            0                       # Request fanout histogram (Count)
system.l2_victimbus.snoopFanout::max_value            1                       # Request fanout histogram (Count)
system.l2_victimbus.snoopFanout::total           1470                       # Request fanout histogram (Count)
system.l2_victimbus.power_state.pwrStateResidencyTicks::UNDEFINED   2346262000                       # Cumulative time (in ticks) in various power states (Tick)
system.l2_victimbus.reqLayer0.occupancy        918000                       # Layer occupancy (ticks) (Tick)
system.l2_victimbus.reqLayer0.utilization          0.0                       # Layer utilization (Ratio)
system.l2_victimbus.respLayer0.occupancy      2192277                       # Layer occupancy (ticks) (Tick)
system.l2_victimbus.respLayer0.utilization          0.0                       # Layer utilization (Ratio)
system.l2_victimbus.snoop_filter.totRequests          918                       # Total number of requests made to the snoop filter. (Count)
system.l2_victimbus.snoop_filter.hitSingleRequests          195                       # Number of requests hitting in the snoop filter with a single holder of the requested data. (Count)
system.l2_victimbus.snoop_filter.hitMultiRequests            0                       # Number of requests hitting in the snoop filter with multiple (>1) holders of the requested data. (Count)
system.l2_victimbus.snoop_filter.totSnoops          723                       # Total number of snoops made to the snoop filter. (Count)
system.l2_victimbus.snoop_filter.hitSingleSnoops          723                       # Number of snoops hitting in the snoop filter with a single holder of the requested data. (Count)
system.l2_victimbus.snoop_filter.hitMultiSnoops            0                       # Number of snoops hitting in the snoop filter with multiple (>1) holders of the requested data. (Count)
system.l2_victimcache.demandMisses::cpu.inst          409                       # number of demand (read+write) misses (Count)
system.l2_victimcache.demandMisses::cpu.data          314                       # number of demand (read+write) misses (Count)
system.l2_victimcache.demandMisses::total          723                       # number of demand (read+write) misses (Count)
system.l2_victimcache.overallMisses::cpu.inst          409                       # number of overall misses (Count)
system.l2_victimcache.overallMisses::cpu.data          314                       # number of overall misses (Count)
system.l2_victimcache.overallMisses::total          723                       # number of overall misses (Count)
system.l2_victimcache.demandMissLatency::cpu.inst     23960000                       # number of demand (read+write) miss ticks (Tick)
system.l2_victimcache.demandMissLatency::cpu.data     19837000                       # number of demand (read+write) miss ticks (Tick)
system.l2_victimcache.demandMissLatency::total     43797000                       # number of demand (read+write) miss ticks (Tick)
system.l2_victimcache.overallMissLatency::cpu.inst     23960000                       # number of overall miss ticks (Tick)
system.l2_victimcache.overallMissLatency::cpu.data     19837000                       # number of overall miss ticks (Tick)
system.l2_victimcache.overallMissLatency::total     43797000                       # number of overall miss ticks (Tick)
system.l2_victimcache.demandAccesses::cpu.inst          409                       # number of demand (read+write) accesses (Count)
system.l2_victimcache.demandAccesses::cpu.data          314                       # number of demand (read+write) accesses (Count)
system.l2_victimcache.demandAccesses::total          723                       # number of demand (read+write) accesses (Count)
system.l2_victimcache.overallAccesses::cpu.inst          409                       # number of overall (read+write) accesses (Count)
system.l2_victimcache.overallAccesses::cpu.data          314                       # number of overall (read+write) accesses (Count)
system.l2_victimcache.overallAccesses::total          723                       # number of overall (read+write) accesses (Count)
system.l2_victimcache.demandMissRate::cpu.inst            1                       # miss rate for demand accesses (Ratio)
system.l2_victimcache.demandMissRate::cpu.data            1                       # miss rate for demand accesses (Ratio)
system.l2_victimcache.demandMissRate::total            1                       # miss rate for demand accesses (Ratio)
system.l2_victimcache.overallMissRate::cpu.inst            1                       # miss rate for overall accesses (Ratio)
system.l2_victimcache.overallMissRate::cpu.data            1                       # miss rate for overall accesses (Ratio)
system.l2_victimcache.overallMissRate::total            1                       # miss rate for overall accesses (Ratio)
system.l2_victimcache.demandAvgMissLatency::cpu.inst 58581.907090                       # average overall miss latency ((Cycle/Count))
system.l2_victimcache.demandAvgMissLatency::cpu.data 63175.159236                       # average overall miss latency ((Cycle/Count))
system.l2_victimcache.demandAvgMissLatency::total 60576.763485                       # average overall miss latency ((Cycle/Count))
system.l2_victimcache.overallAvgMissLatency::cpu.inst 58581.907090                       # average overall miss latency ((Cycle/Count))
system.l2_victimcache.overallAvgMissLatency::cpu.data 63175.159236                       # average overall miss latency ((Cycle/Count))
system.l2_victimcache.overallAvgMissLatency::total 60576.763485                       # average overall miss latency ((Cycle/Count))
system.l2_victimcache.blockedCycles::no_mshrs            0                       # number of cycles access was blocked (Cycle)
system.l2_victimcache.blockedCycles::no_targets            0                       # number of cycles access was blocked (Cycle)
system.l2_victimcache.blockedCauses::no_mshrs            0                       # number of times access was blocked (Count)
system.l2_victimcache.blockedCauses::no_targets            0                       # number of times access was blocked (Count)
system.l2_victimcache.avgBlocked::no_mshrs          nan                       # average number of cycles each access was blocked ((Cycle/Count))
system.l2_victimcache.avgBlocked::no_targets          nan                       # average number of cycles each access was blocked ((Cycle/Count))
system.l2_victimcache.writebacks::writebacks          723                       # number of writebacks (Count)
system.l2_victimcache.writebacks::total           723                       # number of writebacks (Count)
system.l2_victimcache.demandMshrMisses::cpu.inst          409                       # number of demand (read+write) MSHR misses (Count)
system.l2_victimcache.demandMshrMisses::cpu.data          314                       # number of demand (read+write) MSHR misses (Count)
system.l2_victimcache.demandMshrMisses::total          723                       # number of demand (read+write) MSHR misses (Count)
system.l2_victimcache.overallMshrMisses::cpu.inst          409                       # number of overall MSHR misses (Count)
system.l2_victimcache.overallMshrMisses::cpu.data          314                       # number of overall MSHR misses (Count)
system.l2_victimcache.overallMshrMisses::total          723                       # number of overall MSHR misses (Count)
system.l2_victimcache.demandMshrMissLatency::cpu.inst     23960000                       # number of demand (read+write) MSHR miss ticks (Tick)
system.l2_victimcache.demandMshrMissLatency::cpu.data     19837000                       # number of demand (read+write) MSHR miss ticks (Tick)
system.l2_victimcache.demandMshrMissLatency::total     43797000                       # number of demand (read+write) MSHR miss ticks (Tick)
system.l2_victimcache.overallMshrMissLatency::cpu.inst     23960000                       # number of overall MSHR miss ticks (Tick)
system.l2_victimcache.overallMshrMissLatency::cpu.data     19837000                       # number of overall MSHR miss ticks (Tick)
system.l2_victimcache.overallMshrMissLatency::total     43797000                       # number of overall MSHR miss ticks (Tick)
system.l2_victimcache.demandMshrMissRate::cpu.inst            1                       # mshr miss ratio for demand accesses (Ratio)
system.l2_victimcache.demandMshrMissRate::cpu.data            1                       # mshr miss ratio for demand accesses (Ratio)
system.l2_victimcache.demandMshrMissRate::total            1                       # mshr miss ratio for demand accesses (Ratio)
system.l2_victimcache.overallMshrMissRate::cpu.inst            1                       # mshr miss ratio for overall accesses (Ratio)
system.l2_victimcache.overallMshrMissRate::cpu.data            1                       # mshr miss ratio for overall accesses (Ratio)
system.l2_victimcache.overallMshrMissRate::total            1                       # mshr miss ratio for overall accesses (Ratio)
system.l2_victimcache.demandAvgMshrMissLatency::cpu.inst 58581.907090                       # average overall mshr miss latency ((Cycle/Count))
system.l2_victimcache.demandAvgMshrMissLatency::cpu.data 63175.159236                       # average overall mshr miss latency ((Cycle/Count))
system.l2_victimcache.demandAvgMshrMissLatency::total 60576.763485                       # average overall mshr miss latency ((Cycle/Count))
system.l2_victimcache.overallAvgMshrMissLatency::cpu.inst 58581.907090                       # average overall mshr miss latency ((Cycle/Count))
system.l2_victimcache.overallAvgMshrMissLatency::cpu.data 63175.159236                       # average overall mshr miss latency ((Cycle/Count))
system.l2_victimcache.overallAvgMshrMissLatency::total 60576.763485                       # average overall mshr miss latency ((Cycle/Count))
system.l2_victimcache.replacements                  0                       # number of replacements (Count)
system.l2_victimcache.CleanEvict.mshrMisses::writebacks          171                       # number of CleanEvict MSHR misses (Count)
system.l2_victimcache.CleanEvict.mshrMisses::total          171                       # number of CleanEvict MSHR misses (Count)
system.l2_victimcache.CleanEvict.mshrMissRate::writebacks          inf                       # mshr miss rate for CleanEvict accesses (Ratio)
system.l2_victimcache.CleanEvict.mshrMissRate::total          inf                       # mshr miss rate for CleanEvict accesses (Ratio)
system.l2_victimcache.ReadCleanReq.misses::cpu.inst          409                       # number of ReadCleanReq misses (Count)
system.l2_victimcache.ReadCleanReq.misses::cpu.data          193                       # number of ReadCleanReq misses (Count)
system.l2_victimcache.ReadCleanReq.misses::total          602                       # number of ReadCleanReq misses (Count)
system.l2_victimcache.ReadCleanReq.missLatency::cpu.inst     23960000                       # number of ReadCleanReq miss ticks (Tick)
system.l2_victimcache.ReadCleanReq.missLatency::cpu.data     12855000                       # number of ReadCleanReq miss ticks (Tick)
system.l2_victimcache.ReadCleanReq.missLatency::total     36815000                       # number of ReadCleanReq miss ticks (Tick)
system.l2_victimcache.ReadCleanReq.accesses::cpu.inst          409                       # number of ReadCleanReq accesses(hits+misses) (Count)
system.l2_victimcache.ReadCleanReq.accesses::cpu.data          193                       # number of ReadCleanReq accesses(hits+misses) (Count)
system.l2_victimcache.ReadCleanReq.accesses::total          602                       # number of ReadCleanReq accesses(hits+misses) (Count)
system.l2_victimcache.ReadCleanReq.missRate::cpu.inst            1                       # miss rate for ReadCleanReq accesses (Ratio)
system.l2_victimcache.ReadCleanReq.missRate::cpu.data            1                       # miss rate for ReadCleanReq accesses (Ratio)
system.l2_victimcache.ReadCleanReq.missRate::total            1                       # miss rate for ReadCleanReq accesses (Ratio)
system.l2_victimcache.ReadCleanReq.avgMissLatency::cpu.inst 58581.907090                       # average ReadCleanReq miss latency ((Tick/Count))
system.l2_victimcache.ReadCleanReq.avgMissLatency::cpu.data 66606.217617                       # average ReadCleanReq miss latency ((Tick/Count))
system.l2_victimcache.ReadCleanReq.avgMissLatency::total 61154.485050                       # average ReadCleanReq miss latency ((Tick/Count))
system.l2_victimcache.ReadCleanReq.mshrMisses::cpu.inst          409                       # number of ReadCleanReq MSHR misses (Count)
system.l2_victimcache.ReadCleanReq.mshrMisses::cpu.data          193                       # number of ReadCleanReq MSHR misses (Count)
system.l2_victimcache.ReadCleanReq.mshrMisses::total          602                       # number of ReadCleanReq MSHR misses (Count)
system.l2_victimcache.ReadCleanReq.mshrMissLatency::cpu.inst     23960000                       # number of ReadCleanReq MSHR miss ticks (Tick)
system.l2_victimcache.ReadCleanReq.mshrMissLatency::cpu.data     12855000                       # number of ReadCleanReq MSHR miss ticks (Tick)
system.l2_victimcache.ReadCleanReq.mshrMissLatency::total     36815000                       # number of ReadCleanReq MSHR miss ticks (Tick)
system.l2_victimcache.ReadCleanReq.mshrMissRate::cpu.inst            1                       # mshr miss rate for ReadCleanReq accesses (Ratio)
system.l2_victimcache.ReadCleanReq.mshrMissRate::cpu.data            1                       # mshr miss rate for ReadCleanReq accesses (Ratio)
system.l2_victimcache.ReadCleanReq.mshrMissRate::total            1                       # mshr miss rate for ReadCleanReq accesses (Ratio)
system.l2_victimcache.ReadCleanReq.avgMshrMissLatency::cpu.inst 58581.907090                       # average ReadCleanReq mshr miss latency ((Tick/Count))
system.l2_victimcache.ReadCleanReq.avgMshrMissLatency::cpu.data 66606.217617                       # average ReadCleanReq mshr miss latency ((Tick/Count))
system.l2_victimcache.ReadCleanReq.avgMshrMissLatency::total 61154.485050                       # average ReadCleanReq mshr miss latency ((Tick/Count))
system.l2_victimcache.ReadExReq.misses::cpu.data          121                       # number of ReadExReq misses (Count)
system.l2_victimcache.ReadExReq.misses::total          121                       # number of ReadExReq misses (Count)
system.l2_victimcache.ReadExReq.missLatency::cpu.data      6982000                       # number of ReadExReq miss ticks (Tick)
system.l2_victimcache.ReadExReq.missLatency::total      6982000                       # number of ReadExReq miss ticks (Tick)
system.l2_victimcache.ReadExReq.accesses::cpu.data          121                       # number of ReadExReq accesses(hits+misses) (Count)
system.l2_victimcache.ReadExReq.accesses::total          121                       # number of ReadExReq accesses(hits+misses) (Count)
system.l2_victimcache.ReadExReq.missRate::cpu.data            1                       # miss rate for ReadExReq accesses (Ratio)
system.l2_victimcache.ReadExReq.missRate::total            1                       # miss rate for ReadExReq accesses (Ratio)
system.l2_victimcache.ReadExReq.avgMissLatency::cpu.data 57702.479339                       # average ReadExReq miss latency ((Tick/Count))
system.l2_victimcache.ReadExReq.avgMissLatency::total 57702.479339                       # average ReadExReq miss latency ((Tick/Count))
system.l2_victimcache.ReadExReq.mshrMisses::cpu.data          121                       # number of ReadExReq MSHR misses (Count)
system.l2_victimcache.ReadExReq.mshrMisses::total          121                       # number of ReadExReq MSHR misses (Count)
system.l2_victimcache.ReadExReq.mshrMissLatency::cpu.data      6982000                       # number of ReadExReq MSHR miss ticks (Tick)
system.l2_victimcache.ReadExReq.mshrMissLatency::total      6982000                       # number of ReadExReq MSHR miss ticks (Tick)
system.l2_victimcache.ReadExReq.mshrMissRate::cpu.data            1                       # mshr miss rate for ReadExReq accesses (Ratio)
system.l2_victimcache.ReadExReq.mshrMissRate::total            1                       # mshr miss rate for ReadExReq accesses (Ratio)
system.l2_victimcache.ReadExReq.avgMshrMissLatency::cpu.data 57702.479339                       # average ReadExReq mshr miss latency ((Tick/Count))
system.l2_victimcache.ReadExReq.avgMshrMissLatency::total 57702.479339                       # average ReadExReq mshr miss latency ((Tick/Count))
system.l2_victimcache.UpgradeReq.misses::cpu.data           24                       # number of UpgradeReq misses (Count)
system.l2_victimcache.UpgradeReq.misses::total           24                       # number of UpgradeReq misses (Count)
system.l2_victimcache.UpgradeReq.accesses::cpu.data           24                       # number of UpgradeReq accesses(hits+misses) (Count)
system.l2_victimcache.UpgradeReq.accesses::total           24                       # number of UpgradeReq accesses(hits+misses) (Count)
system.l2_victimcache.UpgradeReq.missRate::cpu.data            1                       # miss rate for UpgradeReq accesses (Ratio)
system.l2_victimcache.UpgradeReq.missRate::total            1                       # miss rate for UpgradeReq accesses (Ratio)
system.l2_victimcache.UpgradeReq.mshrMisses::cpu.data           24                       # number of UpgradeReq MSHR misses (Count)
system.l2_victimcache.UpgradeReq.mshrMisses::total           24                       # number of UpgradeReq MSHR misses (Count)
system.l2_victimcache.UpgradeReq.mshrMissLatency::cpu.data       239976                       # number of UpgradeReq MSHR miss ticks (Tick)
system.l2_victimcache.UpgradeReq.mshrMissLatency::total       239976                       # number of UpgradeReq MSHR miss ticks (Tick)
system.l2_victimcache.UpgradeReq.mshrMissRate::cpu.data            1                       # mshr miss rate for UpgradeReq accesses (Ratio)
system.l2_victimcache.UpgradeReq.mshrMissRate::total            1                       # mshr miss rate for UpgradeReq accesses (Ratio)
system.l2_victimcache.UpgradeReq.avgMshrMissLatency::cpu.data         9999                       # average UpgradeReq mshr miss latency ((Tick/Count))
system.l2_victimcache.UpgradeReq.avgMshrMissLatency::total         9999                       # average UpgradeReq mshr miss latency ((Tick/Count))
system.l2_victimcache.power_state.pwrStateResidencyTicks::UNDEFINED   2346262000                       # Cumulative time (in ticks) in various power states (Tick)
system.l2_victimcache.tags.tagsInUse                0                       # Average ticks per tags in use ((Tick/Count))
system.l2_victimcache.tags.totalRefs                0                       # Total number of references to valid blocks. (Count)
system.l2_victimcache.tags.sampledRefs              0                       # Sample count of references to valid blocks. (Count)
system.l2_victimcache.tags.avgRefs                nan                       # Average number of references to valid blocks. ((Count/Count))
system.l2_victimcache.tags.warmupTick               0                       # The tick when the warmup percentage was hit. (Tick)
system.l2_victimcache.tags.tagAccesses           7344                       # Number of tag accesses (Count)
system.l2_victimcache.tags.dataAccesses          7344                       # Number of data accesses (Count)
system.l2_victimcache.tags.power_state.pwrStateResidencyTicks::UNDEFINED   2346262000                       # Cumulative time (in ticks) in various power states (Tick)
system.l2bus.transDist::ReadResp                78857                       # Transaction distribution (Count)
system.l2bus.transDist::WritebackDirty              2                       # Transaction distribution (Count)
system.l2bus.transDist::WritebackClean          79041                       # Transaction distribution (Count)
system.l2bus.transDist::CleanEvict                171                       # Transaction distribution (Count)
system.l2bus.transDist::UpgradeReq                 24                       # Transaction distribution (Count)
system.l2bus.transDist::UpgradeResp                24                       # Transaction distribution (Count)
system.l2bus.transDist::ReadExReq                 121                       # Transaction distribution (Count)
system.l2bus.transDist::ReadExResp                121                       # Transaction distribution (Count)
system.l2bus.transDist::ReadSharedReq           78857                       # Transaction distribution (Count)
system.l2bus.pktCount_system.cpu.icache.mem_side_port::system.l2cache.cpu_side_port          989                       # Packet count per connected requestor and responder (Count)
system.l2bus.pktCount_system.cpu.dcache.mem_side_port::system.l2cache.cpu_side_port       235506                       # Packet count per connected requestor and responder (Count)
system.l2bus.pktCount::total                   236495                       # Packet count per connected requestor and responder (Count)
system.l2bus.pktSize_system.cpu.icache.mem_side_port::system.l2cache.cpu_side_port        26176                       # Cumulative packet size per connected requestor and responder (Byte)
system.l2bus.pktSize_system.cpu.dcache.mem_side_port::system.l2cache.cpu_side_port     10040896                       # Cumulative packet size per connected requestor and responder (Byte)
system.l2bus.pktSize::total                  10067072                       # Cumulative packet size per connected requestor and responder (Byte)
system.l2bus.snoops                               723                       # Total snoops (Count)
system.l2bus.snoopTraffic                       46272                       # Total snoop traffic (Byte)
system.l2bus.snoopFanout::samples               79725                       # Request fanout histogram (Count)
system.l2bus.snoopFanout::mean               0.009069                       # Request fanout histogram (Count)
system.l2bus.snoopFanout::stdev              0.094797                       # Request fanout histogram (Count)
system.l2bus.snoopFanout::underflows                0      0.00%      0.00% # Request fanout histogram (Count)
system.l2bus.snoopFanout::0                     79002     99.09%     99.09% # Request fanout histogram (Count)
system.l2bus.snoopFanout::1                       723      0.91%    100.00% # Request fanout histogram (Count)
system.l2bus.snoopFanout::2                         0      0.00%    100.00% # Request fanout histogram (Count)
system.l2bus.snoopFanout::overflows                 0      0.00%    100.00% # Request fanout histogram (Count)
system.l2bus.snoopFanout::min_value                 0                       # Request fanout histogram (Count)
system.l2bus.snoopFanout::max_value                 1                       # Request fanout histogram (Count)
system.l2bus.snoopFanout::total                 79725                       # Request fanout histogram (Count)
system.l2bus.power_state.pwrStateResidencyTicks::UNDEFINED   2346262000                       # Cumulative time (in ticks) in various power states (Tick)
system.l2bus.reqLayer0.occupancy            314133000                       # Layer occupancy (ticks) (Tick)
system.l2bus.reqLayer0.utilization                0.1                       # Layer utilization (Ratio)
system.l2bus.respLayer0.occupancy             1227000                       # Layer occupancy (ticks) (Tick)
system.l2bus.respLayer0.utilization               0.0                       # Layer utilization (Ratio)
system.l2bus.respLayer1.occupancy           235731000                       # Layer occupancy (ticks) (Tick)
system.l2bus.respLayer1.utilization               0.1                       # Layer utilization (Ratio)
system.l2bus.snoop_filter.totRequests          157493                       # Total number of requests made to the snoop filter. (Count)
system.l2bus.snoop_filter.hitSingleRequests        78515                       # Number of requests hitting in the snoop filter with a single holder of the requested data. (Count)
system.l2bus.snoop_filter.hitMultiRequests            0                       # Number of requests hitting in the snoop filter with multiple (>1) holders of the requested data. (Count)
system.l2bus.snoop_filter.totSnoops               723                       # Total number of snoops made to the snoop filter. (Count)
system.l2bus.snoop_filter.hitSingleSnoops          723                       # Number of snoops hitting in the snoop filter with a single holder of the requested data. (Count)
system.l2bus.snoop_filter.hitMultiSnoops            0                       # Number of snoops hitting in the snoop filter with multiple (>1) holders of the requested data. (Count)
system.l2cache.demandHits::cpu.data             78255                       # number of demand (read+write) hits (Count)
system.l2cache.demandHits::total                78255                       # number of demand (read+write) hits (Count)
system.l2cache.overallHits::cpu.data            78255                       # number of overall hits (Count)
system.l2cache.overallHits::total               78255                       # number of overall hits (Count)
system.l2cache.demandMisses::cpu.inst             409                       # number of demand (read+write) misses (Count)
system.l2cache.demandMisses::cpu.data             314                       # number of demand (read+write) misses (Count)
system.l2cache.demandMisses::total                723                       # number of demand (read+write) misses (Count)
system.l2cache.overallMisses::cpu.inst            409                       # number of overall misses (Count)
system.l2cache.overallMisses::cpu.data            314                       # number of overall misses (Count)
system.l2cache.overallMisses::total               723                       # number of overall misses (Count)
system.l2cache.demandMissLatency::cpu.inst     41138000                       # number of demand (read+write) miss ticks (Tick)
system.l2cache.demandMissLatency::cpu.data     33025000                       # number of demand (read+write) miss ticks (Tick)
system.l2cache.demandMissLatency::total      74163000                       # number of demand (read+write) miss ticks (Tick)
system.l2cache.overallMissLatency::cpu.inst     41138000                       # number of overall miss ticks (Tick)
system.l2cache.overallMissLatency::cpu.data     33025000                       # number of overall miss ticks (Tick)
system.l2cache.overallMissLatency::total     74163000                       # number of overall miss ticks (Tick)
system.l2cache.demandAccesses::cpu.inst           409                       # number of demand (read+write) accesses (Count)
system.l2cache.demandAccesses::cpu.data         78569                       # number of demand (read+write) accesses (Count)
system.l2cache.demandAccesses::total            78978                       # number of demand (read+write) accesses (Count)
system.l2cache.overallAccesses::cpu.inst          409                       # number of overall (read+write) accesses (Count)
system.l2cache.overallAccesses::cpu.data        78569                       # number of overall (read+write) accesses (Count)
system.l2cache.overallAccesses::total           78978                       # number of overall (read+write) accesses (Count)
system.l2cache.demandMissRate::cpu.inst             1                       # miss rate for demand accesses (Ratio)
system.l2cache.demandMissRate::cpu.data      0.003996                       # miss rate for demand accesses (Ratio)
system.l2cache.demandMissRate::total         0.009154                       # miss rate for demand accesses (Ratio)
system.l2cache.overallMissRate::cpu.inst            1                       # miss rate for overall accesses (Ratio)
system.l2cache.overallMissRate::cpu.data     0.003996                       # miss rate for overall accesses (Ratio)
system.l2cache.overallMissRate::total        0.009154                       # miss rate for overall accesses (Ratio)
system.l2cache.demandAvgMissLatency::cpu.inst 100581.907090                       # average overall miss latency ((Cycle/Count))
system.l2cache.demandAvgMissLatency::cpu.data 105175.159236                       # average overall miss latency ((Cycle/Count))
system.l2cache.demandAvgMissLatency::total 102576.763485                       # average overall miss latency ((Cycle/Count))
system.l2cache.overallAvgMissLatency::cpu.inst 100581.907090                       # average overall miss latency ((Cycle/Count))
system.l2cache.overallAvgMissLatency::cpu.data 105175.159236                       # average overall miss latency ((Cycle/Count))
system.l2cache.overallAvgMissLatency::total 102576.763485                       # average overall miss latency ((Cycle/Count))
system.l2cache.blockedCycles::no_mshrs              0                       # number of cycles access was blocked (Cycle)
system.l2cache.blockedCycles::no_targets            0                       # number of cycles access was blocked (Cycle)
system.l2cache.blockedCauses::no_mshrs              0                       # number of times access was blocked (Count)
system.l2cache.blockedCauses::no_targets            0                       # number of times access was blocked (Count)
system.l2cache.avgBlocked::no_mshrs               nan                       # average number of cycles each access was blocked ((Cycle/Count))
system.l2cache.avgBlocked::no_targets             nan                       # average number of cycles each access was blocked ((Cycle/Count))
system.l2cache.writebacks::writebacks             723                       # number of writebacks (Count)
system.l2cache.writebacks::total                  723                       # number of writebacks (Count)
system.l2cache.demandMshrMisses::cpu.inst          409                       # number of demand (read+write) MSHR misses (Count)
system.l2cache.demandMshrMisses::cpu.data          314                       # number of demand (read+write) MSHR misses (Count)
system.l2cache.demandMshrMisses::total            723                       # number of demand (read+write) MSHR misses (Count)
system.l2cache.overallMshrMisses::cpu.inst          409                       # number of overall MSHR misses (Count)
system.l2cache.overallMshrMisses::cpu.data          314                       # number of overall MSHR misses (Count)
system.l2cache.overallMshrMisses::total           723                       # number of overall MSHR misses (Count)
system.l2cache.demandMshrMissLatency::cpu.inst     32958000                       # number of demand (read+write) MSHR miss ticks (Tick)
system.l2cache.demandMshrMissLatency::cpu.data     26745000                       # number of demand (read+write) MSHR miss ticks (Tick)
system.l2cache.demandMshrMissLatency::total     59703000                       # number of demand (read+write) MSHR miss ticks (Tick)
system.l2cache.overallMshrMissLatency::cpu.inst     32958000                       # number of overall MSHR miss ticks (Tick)
system.l2cache.overallMshrMissLatency::cpu.data     26745000                       # number of overall MSHR miss ticks (Tick)
system.l2cache.overallMshrMissLatency::total     59703000                       # number of overall MSHR miss ticks (Tick)
system.l2cache.demandMshrMissRate::cpu.inst            1                       # mshr miss ratio for demand accesses (Ratio)
system.l2cache.demandMshrMissRate::cpu.data     0.003996                       # mshr miss ratio for demand accesses (Ratio)
system.l2cache.demandMshrMissRate::total     0.009154                       # mshr miss ratio for demand accesses (Ratio)
system.l2cache.overallMshrMissRate::cpu.inst            1                       # mshr miss ratio for overall accesses (Ratio)
system.l2cache.overallMshrMissRate::cpu.data     0.003996                       # mshr miss ratio for overall accesses (Ratio)
system.l2cache.overallMshrMissRate::total     0.009154                       # mshr miss ratio for overall accesses (Ratio)
system.l2cache.demandAvgMshrMissLatency::cpu.inst 80581.907090                       # average overall mshr miss latency ((Cycle/Count))
system.l2cache.demandAvgMshrMissLatency::cpu.data 85175.159236                       # average overall mshr miss latency ((Cycle/Count))
system.l2cache.demandAvgMshrMissLatency::total 82576.763485                       # average overall mshr miss latency ((Cycle/Count))
system.l2cache.overallAvgMshrMissLatency::cpu.inst 80581.907090                       # average overall mshr miss latency ((Cycle/Count))
system.l2cache.overallAvgMshrMissLatency::cpu.data 85175.159236                       # average overall mshr miss latency ((Cycle/Count))
system.l2cache.overallAvgMshrMissLatency::total 82576.763485                       # average overall mshr miss latency ((Cycle/Count))
system.l2cache.replacements                         0                       # number of replacements (Count)
system.l2cache.CleanEvict.mshrMisses::writebacks          171                       # number of CleanEvict MSHR misses (Count)
system.l2cache.CleanEvict.mshrMisses::total          171                       # number of CleanEvict MSHR misses (Count)
system.l2cache.CleanEvict.mshrMissRate::writebacks          inf                       # mshr miss rate for CleanEvict accesses (Ratio)
system.l2cache.CleanEvict.mshrMissRate::total          inf                       # mshr miss rate for CleanEvict accesses (Ratio)
system.l2cache.ReadExReq.misses::cpu.data          121                       # number of ReadExReq misses (Count)
system.l2cache.ReadExReq.misses::total            121                       # number of ReadExReq misses (Count)
system.l2cache.ReadExReq.missLatency::cpu.data     12064000                       # number of ReadExReq miss ticks (Tick)
system.l2cache.ReadExReq.missLatency::total     12064000                       # number of ReadExReq miss ticks (Tick)
system.l2cache.ReadExReq.accesses::cpu.data          121                       # number of ReadExReq accesses(hits+misses) (Count)
system.l2cache.ReadExReq.accesses::total          121                       # number of ReadExReq accesses(hits+misses) (Count)
system.l2cache.ReadExReq.missRate::cpu.data            1                       # miss rate for ReadExReq accesses (Ratio)
system.l2cache.ReadExReq.missRate::total            1                       # miss rate for ReadExReq accesses (Ratio)
system.l2cache.ReadExReq.avgMissLatency::cpu.data 99702.479339                       # average ReadExReq miss latency ((Tick/Count))
system.l2cache.ReadExReq.avgMissLatency::total 99702.479339                       # average ReadExReq miss latency ((Tick/Count))
system.l2cache.ReadExReq.mshrMisses::cpu.data          121                       # number of ReadExReq MSHR misses (Count)
system.l2cache.ReadExReq.mshrMisses::total          121                       # number of ReadExReq MSHR misses (Count)
system.l2cache.ReadExReq.mshrMissLatency::cpu.data      9644000                       # number of ReadExReq MSHR miss ticks (Tick)
system.l2cache.ReadExReq.mshrMissLatency::total      9644000                       # number of ReadExReq MSHR miss ticks (Tick)
system.l2cache.ReadExReq.mshrMissRate::cpu.data            1                       # mshr miss rate for ReadExReq accesses (Ratio)
system.l2cache.ReadExReq.mshrMissRate::total            1                       # mshr miss rate for ReadExReq accesses (Ratio)
system.l2cache.ReadExReq.avgMshrMissLatency::cpu.data 79702.479339                       # average ReadExReq mshr miss latency ((Tick/Count))
system.l2cache.ReadExReq.avgMshrMissLatency::total 79702.479339                       # average ReadExReq mshr miss latency ((Tick/Count))
system.l2cache.ReadSharedReq.hits::cpu.data        78255                       # number of ReadSharedReq hits (Count)
system.l2cache.ReadSharedReq.hits::total        78255                       # number of ReadSharedReq hits (Count)
system.l2cache.ReadSharedReq.misses::cpu.inst          409                       # number of ReadSharedReq misses (Count)
system.l2cache.ReadSharedReq.misses::cpu.data          193                       # number of ReadSharedReq misses (Count)
system.l2cache.ReadSharedReq.misses::total          602                       # number of ReadSharedReq misses (Count)
system.l2cache.ReadSharedReq.missLatency::cpu.inst     41138000                       # number of ReadSharedReq miss ticks (Tick)
system.l2cache.ReadSharedReq.missLatency::cpu.data     20961000                       # number of ReadSharedReq miss ticks (Tick)
system.l2cache.ReadSharedReq.missLatency::total     62099000                       # number of ReadSharedReq miss ticks (Tick)
system.l2cache.ReadSharedReq.accesses::cpu.inst          409                       # number of ReadSharedReq accesses(hits+misses) (Count)
system.l2cache.ReadSharedReq.accesses::cpu.data        78448                       # number of ReadSharedReq accesses(hits+misses) (Count)
system.l2cache.ReadSharedReq.accesses::total        78857                       # number of ReadSharedReq accesses(hits+misses) (Count)
system.l2cache.ReadSharedReq.missRate::cpu.inst            1                       # miss rate for ReadSharedReq accesses (Ratio)
system.l2cache.ReadSharedReq.missRate::cpu.data     0.002460                       # miss rate for ReadSharedReq accesses (Ratio)
system.l2cache.ReadSharedReq.missRate::total     0.007634                       # miss rate for ReadSharedReq accesses (Ratio)
system.l2cache.ReadSharedReq.avgMissLatency::cpu.inst 100581.907090                       # average ReadSharedReq miss latency ((Tick/Count))
system.l2cache.ReadSharedReq.avgMissLatency::cpu.data 108606.217617                       # average ReadSharedReq miss latency ((Tick/Count))
[...]
system.mem_ctrl.dram.bytesRead::cpu.inst        26176                       # Number of bytes read from this memory (Byte)
system.mem_ctrl.dram.bytesRead::cpu.data        20096                       # Number of bytes read from this memory (Byte)
system.mem_ctrl.dram.bytesRead::total           46272                       # Number of bytes read from this memory (Byte)
system.mem_ctrl.dram.bytesInstRead::cpu.inst        26176                       # Number of instructions bytes read from this memory (Byte)
system.mem_ctrl.dram.bytesInstRead::total        26176                       # Number of instructions bytes read from this memory (Byte)
system.mem_ctrl.dram.numReads::cpu.inst           409                       # Number of read requests responded to by this memory (Count)
system.mem_ctrl.dram.numReads::cpu.data           314                       # Number of read requests responded to by this memory (Count)
system.mem_ctrl.dram.numReads::total              723                       # Number of read requests responded to by this memory (Count)
system.mem_ctrl.dram.bwRead::cpu.inst        11156469                       # Total read bandwidth from this memory ((Byte/Second))
system.mem_ctrl.dram.bwRead::cpu.data         8565113                       # Total read bandwidth from this memory ((Byte/Second))
system.mem_ctrl.dram.bwRead::total           19721583                       # Total read bandwidth from this memory ((Byte/Second))
system.mem_ctrl.dram.bwInstRead::cpu.inst     11156469                       # Instruction read bandwidth from this memory ((Byte/Second))
system.mem_ctrl.dram.bwInstRead::total       11156469                       # Instruction read bandwidth from this memory ((Byte/Second))
system.mem_ctrl.dram.bwTotal::cpu.inst       11156469                       # Total bandwidth to/from this memory ((Byte/Second))
system.mem_ctrl.dram.bwTotal::cpu.data        8565113                       # Total bandwidth to/from this memory ((Byte/Second))
system.mem_ctrl.dram.bwTotal::total          19721583                       # Total bandwidth to/from this memory ((Byte/Second))
system.mem_ctrl.dram.readBursts                   723                       # Number of DRAM read bursts (Count)
system.mem_ctrl.dram.writeBursts                    0                       # Number of DRAM write bursts (Count)
system.mem_ctrl.dram.perBankRdBursts::0            43                       # Per bank write bursts (Count)
system.mem_ctrl.dram.perBankRdBursts::1            61                       # Per bank write bursts (Count)
system.mem_ctrl.dram.perBankRdBursts::2           104                       # Per bank write bursts (Count)
system.mem_ctrl.dram.perBankRdBursts::3            91                       # Per bank write bursts (Count)
system.mem_ctrl.dram.perBankRdBursts::4            72                       # Per bank write bursts (Count)
system.mem_ctrl.dram.perBankRdBursts::5             8                       # Per bank write bursts (Count)
system.mem_ctrl.dram.perBankRdBursts::6             6                       # Per bank write bursts (Count)
system.mem_ctrl.dram.perBankRdBursts::7             6                       # Per bank write bursts (Count)
system.mem_ctrl.dram.perBankRdBursts::8            36                       # Per bank write bursts (Count)
system.mem_ctrl.dram.perBankRdBursts::9            72                       # Per bank write bursts (Count)
system.mem_ctrl.dram.perBankRdBursts::10           26                       # Per bank write bursts (Count)
system.mem_ctrl.dram.perBankRdBursts::11           20                       # Per bank write bursts (Count)
system.mem_ctrl.dram.perBankRdBursts::12           56                       # Per bank write bursts (Count)
system.mem_ctrl.dram.perBankRdBursts::13           31                       # Per bank write bursts (Count)
system.mem_ctrl.dram.perBankRdBursts::14           48                       # Per bank write bursts (Count)
system.mem_ctrl.dram.perBankRdBursts::15           43                       # Per bank write bursts (Count)
system.mem_ctrl.dram.perBankWrBursts::0             0                       # Per bank write bursts (Count)
system.mem_ctrl.dram.perBankWrBursts::1             0                       # Per bank write bursts (Count)
system.mem_ctrl.dram.perBankWrBursts::2             0                       # Per bank write bursts (Count)
system.mem_ctrl.dram.perBankWrBursts::3             0                       # Per bank write bursts (Count)
system.mem_ctrl.dram.perBankWrBursts::4             0                       # Per bank write bursts (Count)
system.mem_ctrl.dram.perBankWrBursts::5             0                       # Per bank write bursts (Count)
system.mem_ctrl.dram.perBankWrBursts::6             0                       # Per bank write bursts (Count)
system.mem_ctrl.dram.perBankWrBursts::7             0                       # Per bank write bursts (Count)
system.mem_ctrl.dram.perBankWrBursts::8             0                       # Per bank write bursts (Count)
system.mem_ctrl.dram.perBankWrBursts::9             0                       # Per bank write bursts (Count)
system.mem_ctrl.dram.perBankWrBursts::10            0                       # Per bank write bursts (Count)
system.mem_ctrl.dram.perBankWrBursts::11            0                       # Per bank write bursts (Count)
system.mem_ctrl.dram.perBankWrBursts::12            0                       # Per bank write bursts (Count)
system.mem_ctrl.dram.perBankWrBursts::13            0                       # Per bank write bursts (Count)
system.mem_ctrl.dram.perBankWrBursts::14            0                       # Per bank write bursts (Count)
system.mem_ctrl.dram.perBankWrBursts::15            0                       # Per bank write bursts (Count)
system.mem_ctrl.dram.totQLat                  7550990                       # Total ticks spent queuing (Tick)
system.mem_ctrl.dram.totBusLat                3615000                       # Total ticks spent in databus transfers (Tick)
system.mem_ctrl.dram.totMemAccLat            21107240                       # Total ticks spent from burst creation until serviced by the DRAM (Tick)
system.mem_ctrl.dram.avgQLat                 10443.97                       # Average queueing delay per DRAM burst ((Tick/Count))
system.mem_ctrl.dram.avgBusLat                5000.00                       # Average bus latency per DRAM burst ((Tick/Count))
system.mem_ctrl.dram.avgMemAccLat            29193.97                       # Average memory access latency per DRAM burst ((Tick/Count))
system.mem_ctrl.dram.readRowHits                  458                       # Number of row buffer hits during reads (Count)
system.mem_ctrl.dram.writeRowHits                   0                       # Number of row buffer hits during writes (Count)
system.mem_ctrl.dram.readRowHitRate             63.35                       # Row buffer hit rate for reads (Ratio)
system.mem_ctrl.dram.writeRowHitRate              nan                       # Row buffer hit rate for writes (Ratio)
system.mem_ctrl.dram.bytesPerActivate::samples          262                       # Bytes accessed per row activation (Byte)
system.mem_ctrl.dram.bytesPerActivate::mean   172.458015                       # Bytes accessed per row activation (Byte)
system.mem_ctrl.dram.bytesPerActivate::gmean   112.581812                       # Bytes accessed per row activation (Byte)
system.mem_ctrl.dram.bytesPerActivate::stdev   215.513368                       # Bytes accessed per row activation (Byte)
system.mem_ctrl.dram.bytesPerActivate::0-127          154     58.78%     58.78% # Bytes accessed per row activation (Byte)
system.mem_ctrl.dram.bytesPerActivate::128-255           60     22.90%     81.68% # Bytes accessed per row activation (Byte)
system.mem_ctrl.dram.bytesPerActivate::256-383           18      6.87%     88.55% # Bytes accessed per row activation (Byte)
system.mem_ctrl.dram.bytesPerActivate::384-511            7      2.67%     91.22% # Bytes accessed per row activation (Byte)
system.mem_ctrl.dram.bytesPerActivate::512-639            7      2.67%     93.89% # Bytes accessed per row activation (Byte)
system.mem_ctrl.dram.bytesPerActivate::640-767            3      1.15%     95.04% # Bytes accessed per row activation (Byte)
system.mem_ctrl.dram.bytesPerActivate::768-895            4      1.53%     96.56% # Bytes accessed per row activation (Byte)
system.mem_ctrl.dram.bytesPerActivate::896-1023            2      0.76%     97.33% # Bytes accessed per row activation (Byte)
system.mem_ctrl.dram.bytesPerActivate::1024-1151            7      2.67%    100.00% # Bytes accessed per row activation (Byte)
system.mem_ctrl.dram.bytesPerActivate::total          262                       # Bytes accessed per row activation (Byte)
system.mem_ctrl.dram.bytesRead                  46272                       # Total number of bytes read from DRAM (Byte)
system.mem_ctrl.dram.bytesWritten                   0                       # Total number of bytes written to DRAM (Byte)
system.mem_ctrl.dram.avgRdBW                19.721583                       # Average DRAM read bandwidth in MiBytes/s ((Byte/Second))
system.mem_ctrl.dram.avgWrBW                        0                       # Average DRAM write bandwidth in MiBytes/s ((Byte/Second))
system.mem_ctrl.dram.peakBW                  12800.00                       # Theoretical peak bandwidth in MiByte/s ((Byte/Second))
system.mem_ctrl.dram.busUtil                     0.15                       # Data bus utilization in percentage (Ratio)
system.mem_ctrl.dram.busUtilRead                 0.15                       # Data bus utilization in percentage for reads (Ratio)
system.mem_ctrl.dram.busUtilWrite                0.00                       # Data bus utilization in percentage for writes (Ratio)
system.mem_ctrl.dram.pageHitRate                63.35                       # Row buffer hit rate, read and write combined (Ratio)
system.mem_ctrl.dram.power_state.pwrStateResidencyTicks::UNDEFINED   2346262000                       # Cumulative time (in ticks) in various power states (Tick)
system.mem_ctrl.dram.rank0.actEnergy          1056720                       # Energy for activate commands per rank (pJ) (Joule)
system.mem_ctrl.dram.rank0.preEnergy           554070                       # Energy for precharge commands per rank (pJ) (Joule)
system.mem_ctrl.dram.rank0.readEnergy         2791740                       # Energy for read commands per rank (pJ) (Joule)
system.mem_ctrl.dram.rank0.writeEnergy              0                       # Energy for write commands per rank (pJ) (Joule)
system.mem_ctrl.dram.rank0.refreshEnergy 185006640.000000                       # Energy for refresh commands per rank (pJ) (Joule)
system.mem_ctrl.dram.rank0.actBackEnergy     85992480                       # Energy for active background per rank (pJ) (Joule)
system.mem_ctrl.dram.rank0.preBackEnergy    828550080                       # Energy for precharge background per rank (pJ) (Joule)
system.mem_ctrl.dram.rank0.actPowerDownEnergy            0                       # Energy for active power-down per rank (pJ) (Joule)
system.mem_ctrl.dram.rank0.prePowerDownEnergy            0                       # Energy for precharge power-down per rank (pJ) (Joule)
system.mem_ctrl.dram.rank0.selfRefreshEnergy            0                       # Energy for self refresh per rank (pJ) (Joule)
system.mem_ctrl.dram.rank0.totalEnergy     1103951730                       # Total energy per rank (pJ) (Joule)
system.mem_ctrl.dram.rank0.averagePower    470.515113                       # Core power per rank (mW) (Watt)
system.mem_ctrl.dram.rank0.totalIdleTime            0                       # Total Idle time Per DRAM Rank (Tick)
system.mem_ctrl.dram.rank0.pwrStateTime::IDLE   2153150763                       # Time in different power states (Tick)
system.mem_ctrl.dram.rank0.pwrStateTime::REF     78260000                       # Time in different power states (Tick)
system.mem_ctrl.dram.rank0.pwrStateTime::SREF            0                       # Time in different power states (Tick)
system.mem_ctrl.dram.rank0.pwrStateTime::PRE_PDN            0                       # Time in different power states (Tick)
system.mem_ctrl.dram.rank0.pwrStateTime::ACT    114851237                       # Time in different power states (Tick)
system.mem_ctrl.dram.rank0.pwrStateTime::ACT_PDN            0                       # Time in different power states (Tick)
system.mem_ctrl.dram.rank1.actEnergy           835380                       # Energy for activate commands per rank (pJ) (Joule)
system.mem_ctrl.dram.rank1.preEnergy           440220                       # Energy for precharge commands per rank (pJ) (Joule)
system.mem_ctrl.dram.rank1.readEnergy         2370480                       # Energy for read commands per rank (pJ) (Joule)
system.mem_ctrl.dram.rank1.writeEnergy              0                       # Energy for write commands per rank (pJ) (Joule)
system.mem_ctrl.dram.rank1.refreshEnergy 185006640.000000                       # Energy for refresh commands per rank (pJ) (Joule)
system.mem_ctrl.dram.rank1.actBackEnergy     88289010                       # Energy for active background per rank (pJ) (Joule)
system.mem_ctrl.dram.rank1.preBackEnergy    826616160                       # Energy for precharge background per rank (pJ) (Joule)
system.mem_ctrl.dram.rank1.actPowerDownEnergy            0                       # Energy for active power-down per rank (pJ) (Joule)
system.mem_ctrl.dram.rank1.prePowerDownEnergy            0                       # Energy for precharge power-down per rank (pJ) (Joule)
system.mem_ctrl.dram.rank1.selfRefreshEnergy            0                       # Energy for self refresh per rank (pJ) (Joule)
system.mem_ctrl.dram.rank1.totalEnergy     1103557890                       # Total energy per rank (pJ) (Joule)
system.mem_ctrl.dram.rank1.averagePower    470.347254                       # Core power per rank (mW) (Watt)
system.mem_ctrl.dram.rank1.totalIdleTime            0                       # Total Idle time Per DRAM Rank (Tick)
system.mem_ctrl.dram.rank1.pwrStateTime::IDLE   2148208515                       # Time in different power states (Tick)
system.mem_ctrl.dram.rank1.pwrStateTime::REF     78260000                       # Time in different power states (Tick)
system.mem_ctrl.dram.rank1.pwrStateTime::SREF            0                       # Time in different power states (Tick)
system.mem_ctrl.dram.rank1.pwrStateTime::PRE_PDN            0                       # Time in different power states (Tick)
system.mem_ctrl.dram.rank1.pwrStateTime::ACT    119793485                       # Time in different power states (Tick)
system.mem_ctrl.dram.rank1.pwrStateTime::ACT_PDN            0                       # Time in different power states (Tick)
system.mem_ctrl.power_state.pwrStateResidencyTicks::UNDEFINED   2346262000                       # Cumulative time (in ticks) in various power states (Tick)
system.membus.transDist::ReadResp                 602                       # Transaction distribution (Count)
system.membus.transDist::CleanEvict               171                       # Transaction distribution (Count)
system.membus.transDist::UpgradeReq                24                       # Transaction distribution (Count)
system.membus.transDist::ReadExReq                121                       # Transaction distribution (Count)
system.membus.transDist::ReadExResp               121                       # Transaction distribution (Count)
system.membus.transDist::ReadCleanReq             602                       # Transaction distribution (Count)
system.membus.pktCount_system.l2_victimcache.mem_side_port::system.mem_ctrl.port         1641                       # Packet count per connected requestor and responder (Count)
system.membus.pktCount_system.l2_victimcache.mem_side_port::total         1641                       # Packet count per connected requestor and responder (Count)
system.membus.pktCount::total                    1641                       # Packet count per connected requestor and responder (Count)
system.membus.pktSize_system.l2_victimcache.mem_side_port::system.mem_ctrl.port        46272                       # Cumulative packet size per connected requestor and responder (Byte)
system.membus.pktSize_system.l2_victimcache.mem_side_port::total        46272                       # Cumulative packet size per connected requestor and responder (Byte)
system.membus.pktSize::total                    46272                       # Cumulative packet size per connected requestor and responder (Byte)
system.membus.snoops                                0                       # Total snoops (Count)
system.membus.snoopTraffic                          0                       # Total snoop traffic (Byte)
system.membus.snoopFanout::samples                747                       # Request fanout histogram (Count)
system.membus.snoopFanout::mean                     0                       # Request fanout histogram (Count)
system.membus.snoopFanout::stdev                    0                       # Request fanout histogram (Count)
system.membus.snoopFanout::underflows               0      0.00%      0.00% # Request fanout histogram (Count)
system.membus.snoopFanout::0                      747    100.00%    100.00% # Request fanout histogram (Count)
system.membus.snoopFanout::1                        0      0.00%    100.00% # Request fanout histogram (Count)
system.membus.snoopFanout::overflows                0      0.00%    100.00% # Request fanout histogram (Count)
system.membus.snoopFanout::min_value                0                       # Request fanout histogram (Count)
system.membus.snoopFanout::max_value                0                       # Request fanout histogram (Count)
system.membus.snoopFanout::total                  747                       # Request fanout histogram (Count)
system.membus.power_state.pwrStateResidencyTicks::UNDEFINED   2346262000                       # Cumulative time (in ticks) in various power states (Tick)
system.membus.reqLayer2.occupancy             1835082                       # Layer occupancy (ticks) (Tick)
system.membus.reqLayer2.utilization               0.0                       # Layer utilization (Ratio)
system.membus.respLayer0.occupancy            3891760                       # Layer occupancy (ticks) (Tick)
system.membus.respLayer0.utilization              0.0                       # Layer utilization (Ratio)
system.membus.snoop_filter.totRequests            918                       # Total number of requests made to the snoop filter. (Count)
system.membus.snoop_filter.hitSingleRequests          195                       # Number of requests hitting in the snoop filter with a single holder of the requested data. (Count)
system.membus.snoop_filter.hitMultiRequests            0                       # Number of requests hitting in the snoop filter with multiple (>1) holders of the requested data. (Count)
system.membus.snoop_filter.totSnoops                0                       # Total number of snoops made to the snoop filter. (Count)
system.membus.snoop_filter.hitSingleSnoops            0                       # Number of snoops hitting in the snoop filter with a single holder of the requested data. (Count)
system.membus.snoop_filter.hitMultiSnoops            0                       # Number of snoops hitting in the snoop filter with multiple (>1) holders of the requested data. (Count)
system.workload.inst.arm                            0                       # number of arm instructions executed (Count)
system.workload.inst.quiesce                        0                       # number of quiesce instructions executed (Count)

---------- End Simulation Statistics   ----------
