
---------- Begin Simulation Statistics ----------
simSeconds                                   0.000418                       # Number of seconds simulated (Second)
simTicks                                    417995000                       # Number of ticks simulated (Tick)
finalTick                                   417995000                       # Number of ticks from beginning of simulation (restored from checkpoints and never reset) (Tick)
simFreq                                  1000000000000                       # The number of ticks per simulated second ((Tick/Second))
hostSeconds                                      2.13                       # Real time elapsed on the host (Second)
hostTickRate                                196669242                       # The number of ticks simulated per host second (ticks/s) ((Tick/Second))
hostMemory                                     645992                       # Number of bytes of host memory used (Byte)
simInsts                                       123096                       # Number of instructions simulated (Count)
simOps                                         245690                       # Number of ops (including micro ops) simulated (Count)
hostInstRate                                    57914                       # Simulator instruction rate (inst/s) ((Count/Second))
hostOpRate                                     115592                       # Simulator op (including micro ops) rate (op/s) ((Count/Second))
system.clk_domain.clock                          1000                       # Clock period in ticks (Tick)
system.clk_domain.voltage_domain.voltage            1                       # Voltage in Volts (Volt)
system.cpu.numCycles                           417996                       # Number of cpu cycles simulated (Cycle)
system.cpu.numWorkItemsStarted                      0                       # Number of work items this cpu started (Count)
system.cpu.numWorkItemsCompleted                    0                       # Number of work items this cpu completed (Count)
system.cpu.instsAdded                          259090                       # Number of instructions added to the IQ (excludes non-spec) (Count)
system.cpu.nonSpecInstsAdded                        1                       # Number of non-speculative instructions added to the IQ (Count)
system.cpu.instsIssued                         820638                       # Number of instructions issued (Count)
system.cpu.squashedInstsIssued                     50                       # Number of squashed instructions issued (Count)
system.cpu.squashedInstsExamined                13395                       # Number of squashed instructions iterated over during squash; mainly for profiling (Count)
system.cpu.squashedOperandsExamined             15075                       # Number of squashed operands that are examined and possibly removed from graph (Count)
system.cpu.squashedNonSpecRemoved                   1                       # Number of squashed non-spec instructions that were removed (Count)
system.cpu.numIssuedDist::samples              397809                       # Number of insts issued each cycle (Count)
system.cpu.numIssuedDist::mean               2.062895                       # Number of insts issued each cycle (Count)
system.cpu.numIssuedDist::stdev              2.101648                       # Number of insts issued each cycle (Count)
system.cpu.numIssuedDist::underflows                0      0.00%      0.00% # Number of insts issued each cycle (Count)
system.cpu.numIssuedDist::0                    164624     41.38%     41.38% # Number of insts issued each cycle (Count)
system.cpu.numIssuedDist::1                     39956     10.04%     51.43% # Number of insts issued each cycle (Count)
system.cpu.numIssuedDist::2                     24165      6.07%     57.50% # Number of insts issued each cycle (Count)
system.cpu.numIssuedDist::3                     16397      4.12%     61.62% # Number of insts issued each cycle (Count)
system.cpu.numIssuedDist::4                    102446     25.75%     87.38% # Number of insts issued each cycle (Count)
system.cpu.numIssuedDist::5                     37804      9.50%     96.88% # Number of insts issued each cycle (Count)
system.cpu.numIssuedDist::6                      5775      1.45%     98.33% # Number of insts issued each cycle (Count)
system.cpu.numIssuedDist::7                      3429      0.86%     99.19% # Number of insts issued each cycle (Count)
system.cpu.numIssuedDist::8                      3213      0.81%    100.00% # Number of insts issued each cycle (Count)
system.cpu.numIssuedDist::overflows                 0      0.00%    100.00% # Number of insts issued each cycle (Count)
system.cpu.numIssuedDist::min_value                 0                       # Number of insts issued each cycle (Count)
system.cpu.numIssuedDist::max_value                 8                       # Number of insts issued each cycle (Count)
system.cpu.numIssuedDist::total                397809                       # Number of insts issued each cycle (Count)
system.cpu.statFuBusy::No_OpClass                   0      0.00%      0.00% # attempts to use FU when none available (Count)
system.cpu.statFuBusy::IntAlu                     259      0.20%      0.20% # attempts to use FU when none available (Count)
system.cpu.statFuBusy::IntMult                      0      0.00%      0.20% # attempts to use FU when none available (Count)
system.cpu.statFuBusy::IntDiv                       0      0.00%      0.20% # attempts to use FU when none available (Count)
system.cpu.statFuBusy::FloatAdd                     0      0.00%      0.20% # attempts to use FU when none available (Count)
system.cpu.statFuBusy::FloatCmp                     0      0.00%      0.20% # attempts to use FU when none available (Count)
system.cpu.statFuBusy::FloatCvt                     0      0.00%      0.20% # attempts to use FU when none available (Count)
system.cpu.statFuBusy::FloatMult                    0      0.00%      0.20% # attempts to use FU when none available (Count)
system.cpu.statFuBusy::FloatMultAcc                 0      0.00%      0.20% # attempts to use FU when none available (Count)
system.cpu.statFuBusy::FloatDiv                     0      0.00%      0.20% # attempts to use FU when none available (Count)
system.cpu.statFuBusy::FloatMisc                    0      0.00%      0.20% # attempts to use FU when none available (Count)
system.cpu.statFuBusy::FloatSqrt                    0      0.00%      0.20% # attempts to use FU when none available (Count)
system.cpu.statFuBusy::SimdAdd                      0      0.00%      0.20% # attempts to use FU when none available (Count)
system.cpu.statFuBusy::SimdAddAcc                   0      0.00%      0.20% # attempts to use FU when none available (Count)
system.cpu.statFuBusy::SimdAlu                     11      0.01%      0.21% # attempts to use FU when none available (Count)
system.cpu.statFuBusy::SimdCmp                      0      0.00%      0.21% # attempts to use FU when none available (Count)
system.cpu.statFuBusy::SimdCvt                      1      0.00%      0.21% # attempts to use FU when none available (Count)
system.cpu.statFuBusy::SimdMisc                     2      0.00%      0.21% # attempts to use FU when none available (Count)
system.cpu.statFuBusy::SimdMult                     0      0.00%      0.21% # attempts to use FU when none available (Count)
system.cpu.statFuBusy::SimdMultAcc                  0      0.00%      0.21% # attempts to use FU when none available (Count)
system.cpu.statFuBusy::SimdShift                    0      0.00%      0.21% # attempts to use FU when none available (Count)
system.cpu.statFuBusy::SimdShiftAcc                 0      0.00%      0.21% # attempts to use FU when none available (Count)
system.cpu.statFuBusy::SimdDiv                      0      0.00%      0.21% # attempts to use FU when none available (Count)
system.cpu.statFuBusy::SimdSqrt                     0      0.00%      0.21% # attempts to use FU when none available (Count)
system.cpu.statFuBusy::SimdFloatAdd                 0      0.00%      0.21% # attempts to use FU when none available (Count)
system.cpu.statFuBusy::SimdFloatAlu                 0      0.00%      0.21% # attempts to use FU when none available (Count)
system.cpu.statFuBusy::SimdFloatCmp                 0      0.00%      0.21% # attempts to use FU when none available (Count)
system.cpu.statFuBusy::SimdFloatCvt                 0      0.00%      0.21% # attempts to use FU when none available (Count)
system.cpu.statFuBusy::SimdFloatDiv                 0      0.00%      0.21% # attempts to use FU when none available (Count)
system.cpu.statFuBusy::SimdFloatMisc                0      0.00%      0.21% # attempts to use FU when none available (Count)
system.cpu.statFuBusy::SimdFloatMult                0      0.00%      0.21% # attempts to use FU when none available (Count)
system.cpu.statFuBusy::SimdFloatMultAcc             0      0.00%      0.21% # attempts to use FU when none available (Count)
system.cpu.statFuBusy::SimdFloatSqrt                0      0.00%      0.21% # attempts to use FU when none available (Count)
system.cpu.statFuBusy::SimdReduceAdd                0      0.00%      0.21% # attempts to use FU when none available (Count)
system.cpu.statFuBusy::SimdReduceAlu                0      0.00%      0.21% # attempts to use FU when none available (Count)
system.cpu.statFuBusy::SimdReduceCmp                0      0.00%      0.21% # attempts to use FU when none available (Count)
system.cpu.statFuBusy::SimdFloatReduceAdd            0      0.00%      0.21% # attempts to use FU when none available (Count)
system.cpu.statFuBusy::SimdFloatReduceCmp            0      0.00%      0.21% # attempts to use FU when none available (Count)
system.cpu.statFuBusy::SimdAes                      0      0.00%      0.21% # attempts to use FU when none available (Count)
system.cpu.statFuBusy::SimdAesMix                   0      0.00%      0.21% # attempts to use FU when none available (Count)
system.cpu.statFuBusy::SimdSha1Hash                 0      0.00%      0.21% # attempts to use FU when none available (Count)
system.cpu.statFuBusy::SimdSha1Hash2                0      0.00%      0.21% # attempts to use FU when none available (Count)
system.cpu.statFuBusy::SimdSha256Hash               0      0.00%      0.21% # attempts to use FU when none available (Count)
system.cpu.statFuBusy::SimdSha256Hash2              0      0.00%      0.21% # attempts to use FU when none available (Count)
system.cpu.statFuBusy::SimdShaSigma2                0      0.00%      0.21% # attempts to use FU when none available (Count)
system.cpu.statFuBusy::SimdShaSigma3                0      0.00%      0.21% # attempts to use FU when none available (Count)
system.cpu.statFuBusy::SimdPredAlu                  0      0.00%      0.21% # attempts to use FU when none available (Count)
system.cpu.statFuBusy::MemRead                     48      0.04%      0.25% # attempts to use FU when none available (Count)
system.cpu.statFuBusy::MemWrite                    21      0.02%      0.27% # attempts to use FU when none available (Count)
system.cpu.statFuBusy::FloatMemRead            127694     99.73%     99.99% # attempts to use FU when none available (Count)
system.cpu.statFuBusy::FloatMemWrite                8      0.01%    100.00% # attempts to use FU when none available (Count)
system.cpu.statFuBusy::IprAccess                    0      0.00%    100.00% # attempts to use FU when none available (Count)
system.cpu.statFuBusy::InstPrefetch                 0      0.00%    100.00% # attempts to use FU when none available (Count)
system.cpu.statIssuedInstType_0::No_OpClass          671      0.08%      0.08% # Number of instructions issued per FU type, per thread (Count)
system.cpu.statIssuedInstType_0::IntAlu        102001     12.43%     12.51% # Number of instructions issued per FU type, per thread (Count)
system.cpu.statIssuedInstType_0::IntMult            5      0.00%     12.51% # Number of instructions issued per FU type, per thread (Count)
system.cpu.statIssuedInstType_0::IntDiv            22      0.00%     12.51% # Number of instructions issued per FU type, per thread (Count)
system.cpu.statIssuedInstType_0::FloatAdd          136      0.02%     12.53% # Number of instructions issued per FU type, per thread (Count)
system.cpu.statIssuedInstType_0::FloatCmp            0      0.00%     12.53% # Number of instructions issued per FU type, per thread (Count)
system.cpu.statIssuedInstType_0::FloatCvt            0      0.00%     12.53% # Number of instructions issued per FU type, per thread (Count)
system.cpu.statIssuedInstType_0::FloatMult            0      0.00%     12.53% # Number of instructions issued per FU type, per thread (Count)
system.cpu.statIssuedInstType_0::FloatMultAcc            0      0.00%     12.53% # Number of instructions issued per FU type, per thread (Count)
system.cpu.statIssuedInstType_0::FloatDiv            0      0.00%     12.53% # Number of instructions issued per FU type, per thread (Count)
system.cpu.statIssuedInstType_0::FloatMisc            0      0.00%     12.53% # Number of instructions issued per FU type, per thread (Count)
system.cpu.statIssuedInstType_0::FloatSqrt            0      0.00%     12.53% # Number of instructions issued per FU type, per thread (Count)
system.cpu.statIssuedInstType_0::SimdAdd            0      0.00%     12.53% # Number of instructions issued per FU type, per thread (Count)
system.cpu.statIssuedInstType_0::SimdAddAcc            0      0.00%     12.53% # Number of instructions issued per FU type, per thread (Count)
system.cpu.statIssuedInstType_0::SimdAlu          162      0.02%     12.55% # Number of instructions issued per FU type, per thread (Count)
system.cpu.statIssuedInstType_0::SimdCmp            0      0.00%     12.55% # Number of instructions issued per FU type, per thread (Count)
system.cpu.statIssuedInstType_0::SimdCvt           48      0.01%     12.56% # Number of instructions issued per FU type, per thread (Count)
system.cpu.statIssuedInstType_0::SimdMisc          218      0.03%     12.58% # Number of instructions issued per FU type, per thread (Count)
system.cpu.statIssuedInstType_0::SimdMult            0      0.00%     12.58% # Number of instructions issued per FU type, per thread (Count)
system.cpu.statIssuedInstType_0::SimdMultAcc            0      0.00%     12.58% # Number of instructions issued per FU type, per thread (Count)
system.cpu.statIssuedInstType_0::SimdShift            0      0.00%     12.58% # Number of instructions issued per FU type, per thread (Count)
system.cpu.statIssuedInstType_0::SimdShiftAcc            0      0.00%     12.58% # Number of instructions issued per FU type, per thread (Count)
system.cpu.statIssuedInstType_0::SimdDiv            0      0.00%     12.58% # Number of instructions issued per FU type, per thread (Count)
system.cpu.statIssuedInstType_0::SimdSqrt            0      0.00%     12.58% # Number of instructions issued per FU type, per thread (Count)
system.cpu.statIssuedInstType_0::SimdFloatAdd        73728      8.98%     21.57% # Number of instructions issued per FU type, per thread (Count)
system.cpu.statIssuedInstType_0::SimdFloatAlu            0      0.00%     21.57% # Number of instructions issued per FU type, per thread (Count)
system.cpu.statIssuedInstType_0::SimdFloatCmp            0      0.00%     21.57% # Number of instructions issued per FU type, per thread (Count)
system.cpu.statIssuedInstType_0::SimdFloatCvt            0      0.00%     21.57% # Number of instructions issued per FU type, per thread (Count)
system.cpu.statIssuedInstType_0::SimdFloatDiv            0      0.00%     21.57% # Number of instructions issued per FU type, per thread (Count)
system.cpu.statIssuedInstType_0::SimdFloatMisc            0      0.00%     21.57% # Number of instructions issued per FU type, per thread (Count)
system.cpu.statIssuedInstType_0::SimdFloatMult            0      0.00%     21.57% # Number of instructions issued per FU type, per thread (Count)
system.cpu.statIssuedInstType_0::SimdFloatMultAcc            0      0.00%     21.57% # Number of instructions issued per FU type, per thread (Count)
system.cpu.statIssuedInstType_0::SimdFloatSqrt            0      0.00%     21.57% # Number of instructions issued per FU type, per thread (Count)
system.cpu.statIssuedInstType_0::SimdReduceAdd            0      0.00%     21.57% # Number of instructions issued per FU type, per thread (Count)
system.cpu.statIssuedInstType_0::SimdReduceAlu            0      0.00%     21.57% # Number of instructions issued per FU type, per thread (Count)
system.cpu.statIssuedInstType_0::SimdReduceCmp            0      0.00%     21.57% # Number of instructions issued per FU type, per thread (Count)
system.cpu.statIssuedInstType_0::SimdFloatReduceAdd            0      0.00%     21.57% # Number of instructions issued per FU type, per thread (Count)
system.cpu.statIssuedInstType_0::SimdFloatReduceCmp            0      0.00%     21.57% # Number of instructions issued per FU type, per thread (Count)
system.cpu.statIssuedInstType_0::SimdAes            0      0.00%     21.57% # Number of instructions issued per FU type, per thread (Count)
system.cpu.statIssuedInstType_0::SimdAesMix            0      0.00%     21.57% # Number of instructions issued per FU type, per thread (Count)
system.cpu.statIssuedInstType_0::SimdSha1Hash            0      0.00%     21.57% # Number of instructions issued per FU type, per thread (Count)
system.cpu.statIssuedInstType_0::SimdSha1Hash2            0      0.00%     21.57% # Number of instructions issued per FU type, per thread (Count)
system.cpu.statIssuedInstType_0::SimdSha256Hash            0      0.00%     21.57% # Number of instructions issued per FU type, per thread (Count)
system.cpu.statIssuedInstType_0::SimdSha256Hash2            0      0.00%     21.57% # Number of instructions issued per FU type, per thread (Count)
system.cpu.statIssuedInstType_0::SimdShaSigma2            0      0.00%     21.57% # Number of instructions issued per FU type, per thread (Count)
system.cpu.statIssuedInstType_0::SimdShaSigma3            0      0.00%     21.57% # Number of instructions issued per FU type, per thread (Count)
system.cpu.statIssuedInstType_0::SimdPredAlu            0      0.00%     21.57% # Number of instructions issued per FU type, per thread (Count)
system.cpu.statIssuedInstType_0::MemRead         2972      0.36%     21.93% # Number of instructions issued per FU type, per thread (Count)
system.cpu.statIssuedInstType_0::MemWrite         1798      0.22%     22.15% # Number of instructions issued per FU type, per thread (Count)
system.cpu.statIssuedInstType_0::FloatMemRead       638340     77.79%     99.93% # Number of instructions issued per FU type, per thread (Count)
system.cpu.statIssuedInstType_0::FloatMemWrite          537      0.07%    100.00% # Number of instructions issued per FU type, per thread (Count)
system.cpu.statIssuedInstType_0::IprAccess            0      0.00%    100.00% # Number of instructions issued per FU type, per thread (Count)
system.cpu.statIssuedInstType_0::InstPrefetch            0      0.00%    100.00% # Number of instructions issued per FU type, per thread (Count)
system.cpu.statIssuedInstType_0::total         820638                       # Number of instructions issued per FU type, per thread (Count)
system.cpu.issueRate                         1.963268                       # Inst issue rate ((Count/Cycle))
system.cpu.fuBusy                              128044                       # FU busy when requested (Count)
system.cpu.fuBusyRate                        0.156030                       # FU busy rate (busy events/executed inst) ((Count/Count))
system.cpu.intInstQueueReads                   612845                       # Number of integer instruction queue reads (Count)
system.cpu.intInstQueueWrites                  123520                       # Number of integer instruction queue writes (Count)
system.cpu.intInstQueueWakeupAccesses          105577                       # Number of integer instruction queue wakeup accesses (Count)
system.cpu.fpInstQueueReads                   1554334                       # Number of floating instruction queue reads (Count)
system.cpu.fpInstQueueWrites                   148978                       # Number of floating instruction queue writes (Count)
system.cpu.fpInstQueueWakeupAccesses           148742                       # Number of floating instruction queue wakeup accesses (Count)
system.cpu.vecInstQueueReads                        0                       # Number of vector instruction queue reads (Count)
system.cpu.vecInstQueueWrites                       0                       # Number of vector instruction queue writes (Count)
system.cpu.vecInstQueueWakeupAccesses               0                       # Number of vector instruction queue wakeup accesses (Count)
system.cpu.intAluAccesses                      106986                       # Number of integer alu accesses (Count)
system.cpu.fpAluAccesses                       841025                       # Number of floating point alu accesses (Count)
system.cpu.vecAluAccesses                           0                       # Number of vector alu accesses (Count)
system.cpu.idleCycles                               0                       # Number of cycles IEW is idle (Cycle)
system.cpu.squashCycles                           607                       # Number of cycles IEW is squashing (Cycle)
system.cpu.blockCycles                          10660                       # Number of cycles IEW is blocking (Cycle)
system.cpu.unblockCycles                        59099                       # Number of cycles IEW is unblocking (Cycle)
system.cpu.dispatchedInsts                     259091                       # Number of instructions dispatched to IQ (Count)
system.cpu.dispSquashedInsts                       27                       # Number of squashed instructions skipped by dispatch (Count)
system.cpu.dispLoadInsts                        76906                       # Number of dispatched load instructions (Count)
system.cpu.dispStoreInsts                        2723                       # Number of dispatched store instructions (Count)
system.cpu.dispNonSpecInsts                         1                       # Number of dispatched non-speculative instructions (Count)
system.cpu.iqFullEvents                           233                       # Number of times the IQ has become full, causing a stall (Count)
system.cpu.lsqFullEvents                        58380                       # Number of times the LSQ has become full, causing a stall (Count)
system.cpu.memOrderViolationEvents                 13                       # Number of memory order violations (Count)
system.cpu.predictedTakenIncorrect                 49                       # Number of branches that were predicted taken incorrectly (Count)
system.cpu.predictedNotTakenIncorrect             647                       # Number of branches that were predicted not taken incorrectly (Count)
system.cpu.branchMispredicts                      696                       # Number of branch mispredicts detected at execute (Count)
system.cpu.numInsts                            819682                       # Number of executed instructions (Count)
system.cpu.numLoadInsts                        641136                       # Number of load instructions executed (Count)
system.cpu.numSquashedInsts                       956                       # Number of squashed instructions skipped in execute (Count)
system.cpu.numSwp                                   0                       # Number of swp insts executed (Count)
system.cpu.numNop                                   0                       # Number of nop insts executed (Count)
system.cpu.numRefs                             643380                       # Number of memory reference insts executed (Count)
system.cpu.numBranches                          10667                       # Number of branches executed (Count)
system.cpu.numStoreInsts                         2244                       # Number of stores executed (Count)
system.cpu.numRate                           1.960980                       # Inst execution rate ((Count/Cycle))
system.cpu.instsToCommit                       254712                       # Cumulative count of insts sent to commit (Count)
system.cpu.writebackCount                      254319                       # Cumulative count of insts written-back (Count)
system.cpu.producerInst                        225444                       # Number of instructions producing a value (Count)
system.cpu.consumerInst                        333053                       # Number of instructions consuming a value (Count)
system.cpu.wbRate                            0.608424                       # Insts written-back per cycle ((Count/Cycle))
system.cpu.wbFanout                          0.676901                       # Average fanout of values written-back ((Count/Count))
system.cpu.timesIdled                             303                       # Number of times that the entire CPU went into an idle state and unscheduled itself (Count)
system.cpu.idleCycles                           20187                       # Total number of cycles that the CPU has spent unscheduled due to idling (Cycle)
system.cpu.committedInsts                      123096                       # Number of Instructions Simulated (Count)
system.cpu.committedOps                        245690                       # Number of Ops (including micro ops) Simulated (Count)
system.cpu.cpi                               3.395691                       # CPI: Cycles Per Instruction ((Cycle/Count))
system.cpu.totalCpi                          3.395691                       # CPI: Total CPI of All Threads ((Cycle/Count))
system.cpu.ipc                               0.294491                       # IPC: Instructions Per Cycle ((Count/Cycle))
system.cpu.totalIpc                          0.294491                       # IPC: Total IPC of All Threads ((Count/Cycle))
system.cpu.intRegfileReads                    1401359                       # Number of integer regfile reads (Count)
system.cpu.intRegfileWrites                     92935                       # Number of integer regfile writes (Count)
system.cpu.fpRegfileReads                      222726                       # Number of floating regfile reads (Count)
system.cpu.fpRegfileWrites                     148173                       # Number of floating regfile writes (Count)
system.cpu.ccRegfileReads                       60327                       # number of cc regfile reads (Count)
system.cpu.ccRegfileWrites                      56539                       # number of cc regfile writes (Count)
system.cpu.miscRegfileReads                    665765                       # number of misc regfile reads (Count)
system.cpu.MemDepUnit__0.insertedLoads          76906                       # Number of loads inserted to the mem dependence unit. (Count)
system.cpu.MemDepUnit__0.insertedStores          2723                       # Number of stores inserted to the mem dependence unit. (Count)
system.cpu.MemDepUnit__0.conflictingLoads           24                       # Number of conflicting loads. (Count)
system.cpu.MemDepUnit__0.conflictingStores            1                       # Number of conflicting stores. (Count)
system.cpu.MemDepUnit__1.insertedLoads              0                       # Number of loads inserted to the mem dependence unit. (Count)
system.cpu.MemDepUnit__1.insertedStores             0                       # Number of stores inserted to the mem dependence unit. (Count)
system.cpu.MemDepUnit__1.conflictingLoads            0                       # Number of conflicting loads. (Count)
system.cpu.MemDepUnit__1.conflictingStores            0                       # Number of conflicting stores. (Count)
system.cpu.MemDepUnit__2.insertedLoads              0                       # Number of loads inserted to the mem dependence unit. (Count)
system.cpu.MemDepUnit__2.insertedStores             0                       # Number of stores inserted to the mem dependence unit. (Count)
system.cpu.MemDepUnit__2.conflictingLoads            0                       # Number of conflicting loads. (Count)
system.cpu.MemDepUnit__2.conflictingStores            0                       # Number of conflicting stores. (Count)
system.cpu.MemDepUnit__3.insertedLoads              0                       # Number of loads inserted to the mem dependence unit. (Count)
system.cpu.MemDepUnit__3.insertedStores             0                       # Number of stores inserted to the mem dependence unit. (Count)
system.cpu.MemDepUnit__3.conflictingLoads            0                       # Number of conflicting loads. (Count)
system.cpu.MemDepUnit__3.conflictingStores            0                       # Number of conflicting stores. (Count)
system.cpu.branchPred.lookups                   12350                       # Number of BP lookups (Count)
system.cpu.branchPred.condPredicted             11081                       # Number of conditional branches predicted (Count)
system.cpu.branchPred.condIncorrect               695                       # Number of conditional branches incorrect (Count)
system.cpu.branchPred.BTBLookups                10082                       # Number of BTB lookups (Count)
system.cpu.branchPred.BTBHits                    9397                       # Number of BTB hits (Count)
system.cpu.branchPred.BTBHitRatio            0.932057                       # BTB Hit Ratio (Ratio)
system.cpu.branchPred.RASUsed                     279                       # Number of times the RAS was used to get a target. (Count)
system.cpu.branchPred.RASIncorrect                  0                       # Number of incorrect RAS predictions. (Count)
system.cpu.branchPred.indirectLookups             357                       # Number of indirect predictor lookups. (Count)
system.cpu.branchPred.indirectHits                 12                       # Number of indirect target hits. (Count)
system.cpu.branchPred.indirectMisses              345                       # Number of indirect misses. (Count)
system.cpu.branchPred.indirectMispredicted           94                       # Number of mispredicted indirect branches. (Count)
system.cpu.commit.commitSquashedInsts           13287                       # The number of squashed insts skipped by commit (Count)
system.cpu.commit.branchMispredicts               582                       # The number of times a branch was mispredicted (Count)
system.cpu.commit.numCommittedDist::samples       395690                       # Number of insts commited each cycle (Count)
system.cpu.commit.numCommittedDist::mean     0.620915                       # Number of insts commited each cycle (Count)
system.cpu.commit.numCommittedDist::stdev     1.511280                       # Number of insts commited each cycle (Count)
system.cpu.commit.numCommittedDist::underflows            0      0.00%      0.00% # Number of insts commited each cycle (Count)
system.cpu.commit.numCommittedDist::0          300400     75.92%     75.92% # Number of insts commited each cycle (Count)
system.cpu.commit.numCommittedDist::1           28521      7.21%     83.13% # Number of insts commited each cycle (Count)
system.cpu.commit.numCommittedDist::2           47710     12.06%     95.18% # Number of insts commited each cycle (Count)
system.cpu.commit.numCommittedDist::3            2583      0.65%     95.84% # Number of insts commited each cycle (Count)
system.cpu.commit.numCommittedDist::4             549      0.14%     95.97% # Number of insts commited each cycle (Count)
system.cpu.commit.numCommittedDist::5            1415      0.36%     96.33% # Number of insts commited each cycle (Count)
system.cpu.commit.numCommittedDist::6            5632      1.42%     97.76% # Number of insts commited each cycle (Count)
system.cpu.commit.numCommittedDist::7             103      0.03%     97.78% # Number of insts commited each cycle (Count)
system.cpu.commit.numCommittedDist::8            8777      2.22%    100.00% # Number of insts commited each cycle (Count)
system.cpu.commit.numCommittedDist::overflows            0      0.00%    100.00% # Number of insts commited each cycle (Count)
system.cpu.commit.numCommittedDist::min_value            0                       # Number of insts commited each cycle (Count)
system.cpu.commit.numCommittedDist::max_value            8                       # Number of insts commited each cycle (Count)
system.cpu.commit.numCommittedDist::total       395690                       # Number of insts commited each cycle (Count)
system.cpu.commit.instsCommitted               123096                       # Number of instructions committed (Count)
system.cpu.commit.opsCommitted                 245690                       # Number of ops (including micro ops) committed (Count)
system.cpu.commit.memRefs                       76918                       # Number of memory references committed (Count)
system.cpu.commit.loads                         75280                       # Number of loads committed (Count)
system.cpu.commit.amos                              0                       # Number of atomic instructions committed (Count)
system.cpu.commit.membars                           0                       # Number of memory barriers committed (Count)
system.cpu.commit.branches                       9935                       # Number of branches committed (Count)
system.cpu.commit.vectorInstructions                0                       # Number of committed Vector instructions. (Count)
system.cpu.commit.floating                     148608                       # Number of committed floating point instructions. (Count)
system.cpu.commit.integer                      171210                       # Number of committed integer instructions. (Count)
system.cpu.commit.functionCalls                   150                       # Number of function calls committed. (Count)
system.cpu.commit.committedInstType_0::No_OpClass          195      0.08%      0.08% # Class of committed instruction (Count)
system.cpu.commit.committedInstType_0::IntAlu        94331     38.39%     38.47% # Class of committed instruction (Count)
system.cpu.commit.committedInstType_0::IntMult            5      0.00%     38.48% # Class of committed instruction (Count)
system.cpu.commit.committedInstType_0::IntDiv           21      0.01%     38.48% # Class of committed instruction (Count)
system.cpu.commit.committedInstType_0::FloatAdd          135      0.05%     38.54% # Class of committed instruction (Count)
system.cpu.commit.committedInstType_0::FloatCmp            0      0.00%     38.54% # Class of committed instruction (Count)
system.cpu.commit.committedInstType_0::FloatCvt            0      0.00%     38.54% # Class of committed instruction (Count)
system.cpu.commit.committedInstType_0::FloatMult            0      0.00%     38.54% # Class of committed instruction (Count)
system.cpu.commit.committedInstType_0::FloatMultAcc            0      0.00%     38.54% # Class of committed instruction (Count)
system.cpu.commit.committedInstType_0::FloatDiv            0      0.00%     38.54% # Class of committed instruction (Count)
system.cpu.commit.committedInstType_0::FloatMisc            0      0.00%     38.54% # Class of committed instruction (Count)
system.cpu.commit.committedInstType_0::FloatSqrt            0      0.00%     38.54% # Class of committed instruction (Count)
system.cpu.commit.committedInstType_0::SimdAdd            0      0.00%     38.54% # Class of committed instruction (Count)
system.cpu.commit.committedInstType_0::SimdAddAcc            0      0.00%     38.54% # Class of committed instruction (Count)
system.cpu.commit.committedInstType_0::SimdAlu           96      0.04%     38.58% # Class of committed instruction (Count)
system.cpu.commit.committedInstType_0::SimdCmp            0      0.00%     38.58% # Class of committed instruction (Count)
system.cpu.commit.committedInstType_0::SimdCvt           46      0.02%     38.60% # Class of committed instruction (Count)
system.cpu.commit.committedInstType_0::SimdMisc          215      0.09%     38.68% # Class of committed instruction (Count)
system.cpu.commit.committedInstType_0::SimdMult            0      0.00%     38.68% # Class of committed instruction (Count)
system.cpu.commit.committedInstType_0::SimdMultAcc            0      0.00%     38.68% # Class of committed instruction (Count)
system.cpu.commit.committedInstType_0::SimdShift            0      0.00%     38.68% # Class of committed instruction (Count)
system.cpu.commit.committedInstType_0::SimdShiftAcc            0      0.00%     38.68% # Class of committed instruction (Count)
system.cpu.commit.committedInstType_0::SimdDiv            0      0.00%     38.68% # Class of committed instruction (Count)
system.cpu.commit.committedInstType_0::SimdSqrt            0      0.00%     38.68% # Class of committed instruction (Count)
system.cpu.commit.committedInstType_0::SimdFloatAdd        73728     30.01%     68.69% # Class of committed instruction (Count)
system.cpu.commit.committedInstType_0::SimdFloatAlu            0      0.00%     68.69% # Class of committed instruction (Count)
system.cpu.commit.committedInstType_0::SimdFloatCmp            0      0.00%     68.69% # Class of committed instruction (Count)
system.cpu.commit.committedInstType_0::SimdFloatCvt            0      0.00%     68.69% # Class of committed instruction (Count)
system.cpu.commit.committedInstType_0::SimdFloatDiv            0      0.00%     68.69% # Class of committed instruction (Count)
system.cpu.commit.committedInstType_0::SimdFloatMisc            0      0.00%     68.69% # Class of committed instruction (Count)
system.cpu.commit.committedInstType_0::SimdFloatMult            0      0.00%     68.69% # Class of committed instruction (Count)
system.cpu.commit.committedInstType_0::SimdFloatMultAcc            0      0.00%     68.69% # Class of committed instruction (Count)
system.cpu.commit.committedInstType_0::SimdFloatSqrt            0      0.00%     68.69% # Class of committed instruction (Count)
system.cpu.commit.committedInstType_0::SimdReduceAdd            0      0.00%     68.69% # Class of committed instruction (Count)
system.cpu.commit.committedInstType_0::SimdReduceAlu            0      0.00%     68.69% # Class of committed instruction (Count)
system.cpu.commit.committedInstType_0::SimdReduceCmp            0      0.00%     68.69% # Class of committed instruction (Count)
system.cpu.commit.committedInstType_0::SimdFloatReduceAdd            0      0.00%     68.69% # Class of committed instruction (Count)
system.cpu.commit.committedInstType_0::SimdFloatReduceCmp            0      0.00%     68.69% # Class of committed instruction (Count)
system.cpu.commit.committedInstType_0::SimdAes            0      0.00%     68.69% # Class of committed instruction (Count)
system.cpu.commit.committedInstType_0::SimdAesMix            0      0.00%     68.69% # Class of committed instruction (Count)
system.cpu.commit.committedInstType_0::SimdSha1Hash            0      0.00%     68.69% # Class of committed instruction (Count)
system.cpu.commit.committedInstType_0::SimdSha1Hash2            0      0.00%     68.69% # Class of committed instruction (Count)
system.cpu.commit.committedInstType_0::SimdSha256Hash            0      0.00%     68.69% # Class of committed instruction (Count)
system.cpu.commit.committedInstType_0::SimdSha256Hash2            0      0.00%     68.69% # Class of committed instruction (Count)
system.cpu.commit.committedInstType_0::SimdShaSigma2            0      0.00%     68.69% # Class of committed instruction (Count)
system.cpu.commit.committedInstType_0::SimdShaSigma3            0      0.00%     68.69% # Class of committed instruction (Count)
system.cpu.commit.committedInstType_0::SimdPredAlu            0      0.00%     68.69% # Class of committed instruction (Count)
system.cpu.commit.committedInstType_0::MemRead         1498      0.61%     69.30% # Class of committed instruction (Count)
system.cpu.commit.committedInstType_0::MemWrite         1171      0.48%     69.78% # Class of committed instruction (Count)
system.cpu.commit.committedInstType_0::FloatMemRead        73782     30.03%     99.81% # Class of committed instruction (Count)
system.cpu.commit.committedInstType_0::FloatMemWrite          467      0.19%    100.00% # Class of committed instruction (Count)
system.cpu.commit.committedInstType_0::IprAccess            0      0.00%    100.00% # Class of committed instruction (Count)
system.cpu.commit.committedInstType_0::InstPrefetch            0      0.00%    100.00% # Class of committed instruction (Count)
system.cpu.commit.committedInstType_0::total       245690                       # Class of committed instruction (Count)
system.cpu.commit.commitEligibleSamples          8777                       # number cycles where commit BW limit reached (Cycle)
system.cpu.dcache.demandHits::cpu.data          15788                       # number of demand (read+write) hits (Count)
system.cpu.dcache.demandHits::total             15788                       # number of demand (read+write) hits (Count)
system.cpu.dcache.overallHits::cpu.data         15788                       # number of overall hits (Count)
system.cpu.dcache.overallHits::total            15788                       # number of overall hits (Count)
system.cpu.dcache.demandMisses::cpu.data        66646                       # number of demand (read+write) misses (Count)
system.cpu.dcache.demandMisses::total           66646                       # number of demand (read+write) misses (Count)
system.cpu.dcache.overallMisses::cpu.data        66646                       # number of overall misses (Count)
system.cpu.dcache.overallMisses::total          66646                       # number of overall misses (Count)
system.cpu.dcache.demandMissLatency::cpu.data   2027639999                       # number of demand (read+write) miss ticks (Tick)
system.cpu.dcache.demandMissLatency::total   2027639999                       # number of demand (read+write) miss ticks (Tick)
system.cpu.dcache.overallMissLatency::cpu.data   2027639999                       # number of overall miss ticks (Tick)
system.cpu.dcache.overallMissLatency::total   2027639999                       # number of overall miss ticks (Tick)
system.cpu.dcache.demandAccesses::cpu.data        82434                       # number of demand (read+write) accesses (Count)
system.cpu.dcache.demandAccesses::total         82434                       # number of demand (read+write) accesses (Count)
system.cpu.dcache.overallAccesses::cpu.data        82434                       # number of overall (read+write) accesses (Count)
system.cpu.dcache.overallAccesses::total        82434                       # number of overall (read+write) accesses (Count)
system.cpu.dcache.demandMissRate::cpu.data     0.808477                       # miss rate for demand accesses (Ratio)
system.cpu.dcache.demandMissRate::total      0.808477                       # miss rate for demand accesses (Ratio)
system.cpu.dcache.overallMissRate::cpu.data     0.808477                       # miss rate for overall accesses (Ratio)
system.cpu.dcache.overallMissRate::total     0.808477                       # miss rate for overall accesses (Ratio)
system.cpu.dcache.demandAvgMissLatency::cpu.data 30424.031435                       # average overall miss latency ((Cycle/Count))
system.cpu.dcache.demandAvgMissLatency::total 30424.031435                       # average overall miss latency ((Cycle/Count))
system.cpu.dcache.overallAvgMissLatency::cpu.data 30424.031435                       # average overall miss latency ((Cycle/Count))
system.cpu.dcache.overallAvgMissLatency::total 30424.031435                       # average overall miss latency ((Cycle/Count))
system.cpu.dcache.blockedCycles::no_mshrs       295228                       # number of cycles access was blocked (Cycle)
system.cpu.dcache.blockedCycles::no_targets            0                       # number of cycles access was blocked (Cycle)
system.cpu.dcache.blockedCauses::no_mshrs        46561                       # number of times access was blocked (Count)
system.cpu.dcache.blockedCauses::no_targets            0                       # number of times access was blocked (Count)
system.cpu.dcache.avgBlocked::no_mshrs       6.340671                       # average number of cycles each access was blocked ((Cycle/Count))
system.cpu.dcache.avgBlocked::no_targets          nan                       # average number of cycles each access was blocked ((Cycle/Count))
system.cpu.dcache.writebacks::writebacks        47260                       # number of writebacks (Count)
system.cpu.dcache.writebacks::total             47260                       # number of writebacks (Count)
system.cpu.dcache.demandMshrHits::cpu.data        19159                       # number of demand (read+write) MSHR hits (Count)
system.cpu.dcache.demandMshrHits::total         19159                       # number of demand (read+write) MSHR hits (Count)
system.cpu.dcache.overallMshrHits::cpu.data        19159                       # number of overall MSHR hits (Count)
system.cpu.dcache.overallMshrHits::total        19159                       # number of overall MSHR hits (Count)
system.cpu.dcache.demandMshrMisses::cpu.data        47487                       # number of demand (read+write) MSHR misses (Count)
system.cpu.dcache.demandMshrMisses::total        47487                       # number of demand (read+write) MSHR misses (Count)
system.cpu.dcache.overallMshrMisses::cpu.data        47487                       # number of overall MSHR misses (Count)
system.cpu.dcache.overallMshrMisses::total        47487                       # number of overall MSHR misses (Count)
system.cpu.dcache.demandMshrMissLatency::cpu.data   1414365373                       # number of demand (read+write) MSHR miss ticks (Tick)
system.cpu.dcache.demandMshrMissLatency::total   1414365373                       # number of demand (read+write) MSHR miss ticks (Tick)
system.cpu.dcache.overallMshrMissLatency::cpu.data   1414365373                       # number of overall MSHR miss ticks (Tick)
system.cpu.dcache.overallMshrMissLatency::total   1414365373                       # number of overall MSHR miss ticks (Tick)
system.cpu.dcache.demandMshrMissRate::cpu.data     0.576061                       # mshr miss ratio for demand accesses (Ratio)
system.cpu.dcache.demandMshrMissRate::total     0.576061                       # mshr miss ratio for demand accesses (Ratio)
system.cpu.dcache.overallMshrMissRate::cpu.data     0.576061                       # mshr miss ratio for overall accesses (Ratio)
system.cpu.dcache.overallMshrMissRate::total     0.576061                       # mshr miss ratio for overall accesses (Ratio)
system.cpu.dcache.demandAvgMshrMissLatency::cpu.data 29784.264599                       # average overall mshr miss latency ((Cycle/Count))
system.cpu.dcache.demandAvgMshrMissLatency::total 29784.264599                       # average overall mshr miss latency ((Cycle/Count))
system.cpu.dcache.overallAvgMshrMissLatency::cpu.data 29784.264599                       # average overall mshr miss latency ((Cycle/Count))
system.cpu.dcache.overallAvgMshrMissLatency::total 29784.264599                       # average overall mshr miss latency ((Cycle/Count))
system.cpu.dcache.replacements                  47260                       # number of replacements (Count)
system.cpu.dcache.ReadReq.hits::cpu.data        14302                       # number of ReadReq hits (Count)
system.cpu.dcache.ReadReq.hits::total           14302                       # number of ReadReq hits (Count)
system.cpu.dcache.ReadReq.misses::cpu.data        66494                       # number of ReadReq misses (Count)
system.cpu.dcache.ReadReq.misses::total         66494                       # number of ReadReq misses (Count)
system.cpu.dcache.ReadReq.missLatency::cpu.data   2012974000                       # number of ReadReq miss ticks (Tick)
system.cpu.dcache.ReadReq.missLatency::total   2012974000                       # number of ReadReq miss ticks (Tick)
system.cpu.dcache.ReadReq.accesses::cpu.data        80796                       # number of ReadReq accesses(hits+misses) (Count)
system.cpu.dcache.ReadReq.accesses::total        80796                       # number of ReadReq accesses(hits+misses) (Count)
system.cpu.dcache.ReadReq.missRate::cpu.data     0.822986                       # miss rate for ReadReq accesses (Ratio)
system.cpu.dcache.ReadReq.missRate::total     0.822986                       # miss rate for ReadReq accesses (Ratio)
system.cpu.dcache.ReadReq.avgMissLatency::cpu.data 30273.017114                       # average ReadReq miss latency ((Tick/Count))
system.cpu.dcache.ReadReq.avgMissLatency::total 30273.017114                       # average ReadReq miss latency ((Tick/Count))
system.cpu.dcache.ReadReq.mshrHits::cpu.data        19157                       # number of ReadReq MSHR hits (Count)
system.cpu.dcache.ReadReq.mshrHits::total        19157                       # number of ReadReq MSHR hits (Count)
system.cpu.dcache.ReadReq.mshrMisses::cpu.data        47337                       # number of ReadReq MSHR misses (Count)
system.cpu.dcache.ReadReq.mshrMisses::total        47337                       # number of ReadReq MSHR misses (Count)
system.cpu.dcache.ReadReq.mshrMissLatency::cpu.data   1400003374                       # number of ReadReq MSHR miss ticks (Tick)
system.cpu.dcache.ReadReq.mshrMissLatency::total   1400003374                       # number of ReadReq MSHR miss ticks (Tick)
system.cpu.dcache.ReadReq.mshrMissRate::cpu.data     0.585883                       # mshr miss rate for ReadReq accesses (Ratio)
system.cpu.dcache.ReadReq.mshrMissRate::total     0.585883                       # mshr miss rate for ReadReq accesses (Ratio)
system.cpu.dcache.ReadReq.avgMshrMissLatency::cpu.data 29575.245030                       # average ReadReq mshr miss latency ((Tick/Count))
system.cpu.dcache.ReadReq.avgMshrMissLatency::total 29575.245030                       # average ReadReq mshr miss latency ((Tick/Count))
system.cpu.dcache.WriteReq.hits::cpu.data         1486                       # number of WriteReq hits (Count)
system.cpu.dcache.WriteReq.hits::total           1486                       # number of WriteReq hits (Count)
system.cpu.dcache.WriteReq.misses::cpu.data          152                       # number of WriteReq misses (Count)
system.cpu.dcache.WriteReq.misses::total          152                       # number of WriteReq misses (Count)
system.cpu.dcache.WriteReq.missLatency::cpu.data     14665999                       # number of WriteReq miss ticks (Tick)
system.cpu.dcache.WriteReq.missLatency::total     14665999                       # number of WriteReq miss ticks (Tick)
system.cpu.dcache.WriteReq.accesses::cpu.data         1638                       # number of WriteReq accesses(hits+misses) (Count)
system.cpu.dcache.WriteReq.accesses::total         1638                       # number of WriteReq accesses(hits+misses) (Count)
system.cpu.dcache.WriteReq.missRate::cpu.data     0.092796                       # miss rate for WriteReq accesses (Ratio)
system.cpu.dcache.WriteReq.missRate::total     0.092796                       # miss rate for WriteReq accesses (Ratio)
system.cpu.dcache.WriteReq.avgMissLatency::cpu.data 96486.835526                       # average WriteReq miss latency ((Tick/Count))
system.cpu.dcache.WriteReq.avgMissLatency::total 96486.835526                       # average WriteReq miss latency ((Tick/Count))
system.cpu.dcache.WriteReq.mshrHits::cpu.data            2                       # number of WriteReq MSHR hits (Count)
system.cpu.dcache.WriteReq.mshrHits::total            2                       # number of WriteReq MSHR hits (Count)
system.cpu.dcache.WriteReq.mshrMisses::cpu.data          150                       # number of WriteReq MSHR misses (Count)
system.cpu.dcache.WriteReq.mshrMisses::total          150                       # number of WriteReq MSHR misses (Count)
system.cpu.dcache.WriteReq.mshrMissLatency::cpu.data     14361999                       # number of WriteReq MSHR miss ticks (Tick)
system.cpu.dcache.WriteReq.mshrMissLatency::total     14361999                       # number of WriteReq MSHR miss ticks (Tick)
system.cpu.dcache.WriteReq.mshrMissRate::cpu.data     0.091575                       # mshr miss rate for WriteReq accesses (Ratio)
system.cpu.dcache.WriteReq.mshrMissRate::total     0.091575                       # mshr miss rate for WriteReq accesses (Ratio)
system.cpu.dcache.WriteReq.avgMshrMissLatency::cpu.data 95746.660000                       # average WriteReq mshr miss latency ((Tick/Count))
system.cpu.dcache.WriteReq.avgMshrMissLatency::total 95746.660000                       # average WriteReq mshr miss latency ((Tick/Count))
system.cpu.dcache.power_state.pwrStateResidencyTicks::UNDEFINED    417995000                       # Cumulative time (in ticks) in various power states (Tick)
system.cpu.dcache.tags.tagsInUse           180.650924                       # Average ticks per tags in use ((Tick/Count))
system.cpu.dcache.tags.totalRefs                63279                       # Total number of references to valid blocks. (Count)
system.cpu.dcache.tags.sampledRefs              47455                       # Sample count of references to valid blocks. (Count)
system.cpu.dcache.tags.avgRefs               1.333453                       # Average number of references to valid blocks. ((Count/Count))
system.cpu.dcache.tags.warmupTick              225000                       # The tick when the warmup percentage was hit. (Tick)
system.cpu.dcache.tags.occupancies::cpu.data   180.650924                       # Average occupied blocks per tick, per requestor ((Count/Tick))
system.cpu.dcache.tags.avgOccs::cpu.data     0.705668                       # Average percentage of cache occupancy ((Ratio/Tick))
system.cpu.dcache.tags.avgOccs::total        0.705668                       # Average percentage of cache occupancy ((Ratio/Tick))
system.cpu.dcache.tags.occupanciesTaskId::1024          195                       # Occupied blocks per task id (Count)
system.cpu.dcache.tags.ageTaskId_1024::0           36                       # Occupied blocks per task id, per block age (Count)
system.cpu.dcache.tags.ageTaskId_1024::2          159                       # Occupied blocks per task id, per block age (Count)
system.cpu.dcache.tags.ratioOccsTaskId::1024     0.761719                       # Ratio of occupied blocks and all blocks, per task id (Ratio)
system.cpu.dcache.tags.tagAccesses             212323                       # Number of tag accesses (Count)
system.cpu.dcache.tags.dataAccesses            212323                       # Number of data accesses (Count)
system.cpu.dcache.tags.power_state.pwrStateResidencyTicks::UNDEFINED    417995000                       # Cumulative time (in ticks) in various power states (Tick)
system.cpu.decode.idleCycles                    24840                       # Number of cycles decode is idle (Cycle)
system.cpu.decode.blockedCycles                338462                       # Number of cycles decode is blocked (Cycle)
system.cpu.decode.runCycles                     10299                       # Number of cycles decode is running (Cycle)
system.cpu.decode.unblockCycles                 23601                       # Number of cycles decode is unblocking (Cycle)
system.cpu.decode.squashCycles                    607                       # Number of cycles decode is squashing (Cycle)
system.cpu.decode.branchResolved                 9522                       # Number of times decode resolved a branch (Count)
system.cpu.decode.branchMispred                   223                       # Number of times decode detected a branch misprediction (Count)
system.cpu.decode.decodedInsts                 263096                       # Number of instructions handled by decode (Count)
system.cpu.decode.squashedInsts                  1009                       # Number of squashed instructions handled by decode (Count)
system.cpu.fetch.icacheStallCycles              32852                       # Number of cycles fetch is stalled on an Icache miss (Cycle)
system.cpu.fetch.insts                         134428                       # Number of instructions fetch has processed (Count)
system.cpu.fetch.branches                       12350                       # Number of branches that fetch encountered (Count)
system.cpu.fetch.predictedBranches               9688                       # Number of branches that fetch has predicted taken (Count)
system.cpu.fetch.cycles                        363262                       # Number of cycles fetch has run and was not squashing or blocked (Cycle)
system.cpu.fetch.squashCycles                    1656                       # Number of cycles fetch has spent squashing (Cycle)
system.cpu.fetch.miscStallCycles                  124                       # Number of cycles fetch has spent waiting on interrupts, or bad addresses, or out of MSHRs (Cycle)
system.cpu.fetch.pendingTrapStallCycles           726                       # Number of stall cycles due to pending traps (Cycle)
system.cpu.fetch.pendingQuiesceStallCycles            2                       # Number of stall cycles due to pending quiesce instructions (Cycle)
system.cpu.fetch.icacheWaitRetryStallCycles           15                       # Number of stall cycles due to full MSHR (Cycle)
system.cpu.fetch.cacheLines                     18805                       # Number of cache lines fetched (Count)
system.cpu.fetch.icacheSquashes                   364                       # Number of outstanding Icache misses that were squashed (Count)
system.cpu.fetch.nisnDist::samples             397809                       # Number of instructions fetched each cycle (Total) (Count)
system.cpu.fetch.nisnDist::mean              0.671093                       # Number of instructions fetched each cycle (Total) (Count)
system.cpu.fetch.nisnDist::stdev             2.037110                       # Number of instructions fetched each cycle (Total) (Count)
system.cpu.fetch.nisnDist::underflows               0      0.00%      0.00% # Number of instructions fetched each cycle (Total) (Count)
system.cpu.fetch.nisnDist::0                   352449     88.60%     88.60% # Number of instructions fetched each cycle (Total) (Count)
system.cpu.fetch.nisnDist::1                     4358      1.10%     89.69% # Number of instructions fetched each cycle (Total) (Count)
system.cpu.fetch.nisnDist::2                      285      0.07%     89.76% # Number of instructions fetched each cycle (Total) (Count)
system.cpu.fetch.nisnDist::3                     2988      0.75%     90.52% # Number of instructions fetched each cycle (Total) (Count)
system.cpu.fetch.nisnDist::4                     7265      1.83%     92.34% # Number of instructions fetched each cycle (Total) (Count)
system.cpu.fetch.nisnDist::5                     4414      1.11%     93.45% # Number of instructions fetched each cycle (Total) (Count)
system.cpu.fetch.nisnDist::6                      318      0.08%     93.53% # Number of instructions fetched each cycle (Total) (Count)
system.cpu.fetch.nisnDist::7                     5819      1.46%     94.99% # Number of instructions fetched each cycle (Total) (Count)
system.cpu.fetch.nisnDist::8                    19913      5.01%    100.00% # Number of instructions fetched each cycle (Total) (Count)
system.cpu.fetch.nisnDist::overflows                0      0.00%    100.00% # Number of instructions fetched each cycle (Total) (Count)
system.cpu.fetch.nisnDist::min_value                0                       # Number of instructions fetched each cycle (Total) (Count)
system.cpu.fetch.nisnDist::max_value                8                       # Number of instructions fetched each cycle (Total) (Count)
system.cpu.fetch.nisnDist::total               397809                       # Number of instructions fetched each cycle (Total) (Count)
system.cpu.fetch.branchRate                  0.029546                       # Number of branch fetches per cycle (Ratio)
system.cpu.fetch.rate                        0.321601                       # Number of inst fetches per cycle ((Count/Cycle))
system.cpu.icache.demandHits::cpu.inst          18189                       # number of demand (read+write) hits (Count)
system.cpu.icache.demandHits::total             18189                       # number of demand (read+write) hits (Count)
system.cpu.icache.overallHits::cpu.inst         18189                       # number of overall hits (Count)
system.cpu.icache.overallHits::total            18189                       # number of overall hits (Count)
system.cpu.icache.demandMisses::cpu.inst          616                       # number of demand (read+write) misses (Count)
system.cpu.icache.demandMisses::total             616                       # number of demand (read+write) misses (Count)
system.cpu.icache.overallMisses::cpu.inst          616                       # number of overall misses (Count)
system.cpu.icache.overallMisses::total            616                       # number of overall misses (Count)
system.cpu.icache.demandMissLatency::cpu.inst     60299999                       # number of demand (read+write) miss ticks (Tick)
system.cpu.icache.demandMissLatency::total     60299999                       # number of demand (read+write) miss ticks (Tick)
system.cpu.icache.overallMissLatency::cpu.inst     60299999                       # number of overall miss ticks (Tick)
system.cpu.icache.overallMissLatency::total     60299999                       # number of overall miss ticks (Tick)
system.cpu.icache.demandAccesses::cpu.inst        18805                       # number of demand (read+write) accesses (Count)
system.cpu.icache.demandAccesses::total         18805                       # number of demand (read+write) accesses (Count)
system.cpu.icache.overallAccesses::cpu.inst        18805                       # number of overall (read+write) accesses (Count)
system.cpu.icache.overallAccesses::total        18805                       # number of overall (read+write) accesses (Count)
system.cpu.icache.demandMissRate::cpu.inst     0.032757                       # miss rate for demand accesses (Ratio)
system.cpu.icache.demandMissRate::total      0.032757                       # miss rate for demand accesses (Ratio)
system.cpu.icache.overallMissRate::cpu.inst     0.032757                       # miss rate for overall accesses (Ratio)
system.cpu.icache.overallMissRate::total     0.032757                       # miss rate for overall accesses (Ratio)
system.cpu.icache.demandAvgMissLatency::cpu.inst 97889.608766                       # average overall miss latency ((Cycle/Count))
system.cpu.icache.demandAvgMissLatency::total 97889.608766                       # average overall miss latency ((Cycle/Count))
system.cpu.icache.overallAvgMissLatency::cpu.inst 97889.608766                       # average overall miss latency ((Cycle/Count))
system.cpu.icache.overallAvgMissLatency::total 97889.608766                       # average overall miss latency ((Cycle/Count))
system.cpu.icache.blockedCycles::no_mshrs          236                       # number of cycles access was blocked (Cycle)
system.cpu.icache.blockedCycles::no_targets            0                       # number of cycles access was blocked (Cycle)
system.cpu.icache.blockedCauses::no_mshrs            5                       # number of times access was blocked (Count)
system.cpu.icache.blockedCauses::no_targets            0                       # number of times access was blocked (Count)
system.cpu.icache.avgBlocked::no_mshrs      47.200000                       # average number of cycles each access was blocked ((Cycle/Count))
system.cpu.icache.avgBlocked::no_targets          nan                       # average number of cycles each access was blocked ((Cycle/Count))
system.cpu.icache.demandMshrHits::cpu.inst          131                       # number of demand (read+write) MSHR hits (Count)
system.cpu.icache.demandMshrHits::total           131                       # number of demand (read+write) MSHR hits (Count)
system.cpu.icache.overallMshrHits::cpu.inst          131                       # number of overall MSHR hits (Count)
system.cpu.icache.overallMshrHits::total          131                       # number of overall MSHR hits (Count)
system.cpu.icache.demandMshrMisses::cpu.inst          485                       # number of demand (read+write) MSHR misses (Count)
system.cpu.icache.demandMshrMisses::total          485                       # number of demand (read+write) MSHR misses (Count)
system.cpu.icache.overallMshrMisses::cpu.inst          485                       # number of overall MSHR misses (Count)
system.cpu.icache.overallMshrMisses::total          485                       # number of overall MSHR misses (Count)
system.cpu.icache.demandMshrMissLatency::cpu.inst     49197999                       # number of demand (read+write) MSHR miss ticks (Tick)
system.cpu.icache.demandMshrMissLatency::total     49197999                       # number of demand (read+write) MSHR miss ticks (Tick)
system.cpu.icache.overallMshrMissLatency::cpu.inst     49197999                       # number of overall MSHR miss ticks (Tick)
system.cpu.icache.overallMshrMissLatency::total     49197999                       # number of overall MSHR miss ticks (Tick)
system.cpu.icache.demandMshrMissRate::cpu.inst     0.025791                       # mshr miss ratio for demand accesses (Ratio)
system.cpu.icache.demandMshrMissRate::total     0.025791                       # mshr miss ratio for demand accesses (Ratio)
system.cpu.icache.overallMshrMissRate::cpu.inst     0.025791                       # mshr miss ratio for overall accesses (Ratio)
system.cpu.icache.overallMshrMissRate::total     0.025791                       # mshr miss ratio for overall accesses (Ratio)
system.cpu.icache.demandAvgMshrMissLatency::cpu.inst 101439.173196                       # average overall mshr miss latency ((Cycle/Count))
system.cpu.icache.demandAvgMshrMissLatency::total 101439.173196                       # average overall mshr miss latency ((Cycle/Count))
system.cpu.icache.overallAvgMshrMissLatency::cpu.inst 101439.173196                       # average overall mshr miss latency ((Cycle/Count))
system.cpu.icache.overallAvgMshrMissLatency::total 101439.173196                       # average overall mshr miss latency ((Cycle/Count))
system.cpu.icache.replacements                    239                       # number of replacements (Count)
system.cpu.icache.ReadReq.hits::cpu.inst        18189                       # number of ReadReq hits (Count)
system.cpu.icache.ReadReq.hits::total           18189                       # number of ReadReq hits (Count)
system.cpu.icache.ReadReq.misses::cpu.inst          616                       # number of ReadReq misses (Count)
system.cpu.icache.ReadReq.misses::total           616                       # number of ReadReq misses (Count)
system.cpu.icache.ReadReq.missLatency::cpu.inst     60299999                       # number of ReadReq miss ticks (Tick)
system.cpu.icache.ReadReq.missLatency::total     60299999                       # number of ReadReq miss ticks (Tick)
system.cpu.icache.ReadReq.accesses::cpu.inst        18805                       # number of ReadReq accesses(hits+misses) (Count)
system.cpu.icache.ReadReq.accesses::total        18805                       # number of ReadReq accesses(hits+misses) (Count)
system.cpu.icache.ReadReq.missRate::cpu.inst     0.032757                       # miss rate for ReadReq accesses (Ratio)
system.cpu.icache.ReadReq.missRate::total     0.032757                       # miss rate for ReadReq accesses (Ratio)
system.cpu.icache.ReadReq.avgMissLatency::cpu.inst 97889.608766                       # average ReadReq miss latency ((Tick/Count))
system.cpu.icache.ReadReq.avgMissLatency::total 97889.608766                       # average ReadReq miss latency ((Tick/Count))
system.cpu.icache.ReadReq.mshrHits::cpu.inst          131                       # number of ReadReq MSHR hits (Count)
system.cpu.icache.ReadReq.mshrHits::total          131                       # number of ReadReq MSHR hits (Count)
system.cpu.icache.ReadReq.mshrMisses::cpu.inst          485                       # number of ReadReq MSHR misses (Count)
system.cpu.icache.ReadReq.mshrMisses::total          485                       # number of ReadReq MSHR misses (Count)
system.cpu.icache.ReadReq.mshrMissLatency::cpu.inst     49197999                       # number of ReadReq MSHR miss ticks (Tick)
system.cpu.icache.ReadReq.mshrMissLatency::total     49197999                       # number of ReadReq MSHR miss ticks (Tick)
system.cpu.icache.ReadReq.mshrMissRate::cpu.inst     0.025791                       # mshr miss rate for ReadReq accesses (Ratio)
system.cpu.icache.ReadReq.mshrMissRate::total     0.025791                       # mshr miss rate for ReadReq accesses (Ratio)
system.cpu.icache.ReadReq.avgMshrMissLatency::cpu.inst 101439.173196                       # average ReadReq mshr miss latency ((Tick/Count))
system.cpu.icache.ReadReq.avgMshrMissLatency::total 101439.173196                       # average ReadReq mshr miss latency ((Tick/Count))
system.cpu.icache.power_state.pwrStateResidencyTicks::UNDEFINED    417995000                       # Cumulative time (in ticks) in various power states (Tick)
system.cpu.icache.tags.tagsInUse           232.041687                       # Average ticks per tags in use ((Tick/Count))
system.cpu.icache.tags.totalRefs                18673                       # Total number of references to valid blocks. (Count)
system.cpu.icache.tags.sampledRefs                484                       # Sample count of references to valid blocks. (Count)
system.cpu.icache.tags.avgRefs              38.580579                       # Average number of references to valid blocks. ((Count/Count))
system.cpu.icache.tags.warmupTick              107000                       # The tick when the warmup percentage was hit. (Tick)
system.cpu.icache.tags.occupancies::cpu.inst   232.041687                       # Average occupied blocks per tick, per requestor ((Count/Tick))
system.cpu.icache.tags.avgOccs::cpu.inst     0.906413                       # Average percentage of cache occupancy ((Ratio/Tick))
system.cpu.icache.tags.avgOccs::total        0.906413                       # Average percentage of cache occupancy ((Ratio/Tick))
system.cpu.icache.tags.occupanciesTaskId::1024          245                       # Occupied blocks per task id (Count)
system.cpu.icache.tags.ageTaskId_1024::0           39                       # Occupied blocks per task id, per block age (Count)
system.cpu.icache.tags.ageTaskId_1024::2          206                       # Occupied blocks per task id, per block age (Count)
system.cpu.icache.tags.ratioOccsTaskId::1024     0.957031                       # Ratio of occupied blocks and all blocks, per task id (Ratio)
system.cpu.icache.tags.tagAccesses              38094                       # Number of tag accesses (Count)
system.cpu.icache.tags.dataAccesses             38094                       # Number of data accesses (Count)
system.cpu.icache.tags.power_state.pwrStateResidencyTicks::UNDEFINED    417995000                       # Cumulative time (in ticks) in various power states (Tick)
system.cpu.interrupts.clk_domain.clock          16000                       # Clock period in ticks (Tick)
system.cpu.lsq0.forwLoads                         212                       # Number of loads that had data forwarded from stores (Count)
system.cpu.lsq0.squashedLoads                    1626                       # Number of loads squashed (Count)
system.cpu.lsq0.ignoredResponses                    1                       # Number of memory responses ignored because the instruction is squashed (Count)
system.cpu.lsq0.memOrderViolation                  13                       # Number of memory ordering violations (Count)
system.cpu.lsq0.squashedStores                   1085                       # Number of stores squashed (Count)
system.cpu.lsq0.rescheduledLoads                    1                       # Number of loads that were rescheduled (Count)
system.cpu.lsq0.blockedByCache                  45949                       # Number of times an access to memory failed due to the cache being blocked (Count)
system.cpu.lsq0.loadToUse::samples              75280                       # Distribution of cycle latency between the first time a load is issued and its completion (Unspecified)
system.cpu.lsq0.loadToUse::mean             99.687885                       # Distribution of cycle latency between the first time a load is issued and its completion (Unspecified)
system.cpu.lsq0.loadToUse::stdev            68.544452                       # Distribution of cycle latency between the first time a load is issued and its completion (Unspecified)
system.cpu.lsq0.loadToUse::0-9                   4800      6.38%      6.38% # Distribution of cycle latency between the first time a load is issued and its completion (Unspecified)
system.cpu.lsq0.loadToUse::10-19                 2396      3.18%      9.56% # Distribution of cycle latency between the first time a load is issued and its completion (Unspecified)
system.cpu.lsq0.loadToUse::20-29                 2950      3.92%     13.48% # Distribution of cycle latency between the first time a load is issued and its completion (Unspecified)
system.cpu.lsq0.loadToUse::30-39                 4241      5.63%     19.11% # Distribution of cycle latency between the first time a load is issued and its completion (Unspecified)
system.cpu.lsq0.loadToUse::40-49                 3881      5.16%     24.27% # Distribution of cycle latency between the first time a load is issued and its completion (Unspecified)
system.cpu.lsq0.loadToUse::50-59                 5383      7.15%     31.42% # Distribution of cycle latency between the first time a load is issued and its completion (Unspecified)
system.cpu.lsq0.loadToUse::60-69                 5675      7.54%     38.96% # Distribution of cycle latency between the first time a load is issued and its completion (Unspecified)
system.cpu.lsq0.loadToUse::70-79                 4462      5.93%     44.88% # Distribution of cycle latency between the first time a load is issued and its completion (Unspecified)
system.cpu.lsq0.loadToUse::80-89                 4729      6.28%     51.16% # Distribution of cycle latency between the first time a load is issued and its completion (Unspecified)
system.cpu.lsq0.loadToUse::90-99                 4025      5.35%     56.51% # Distribution of cycle latency between the first time a load is issued and its completion (Unspecified)
system.cpu.lsq0.loadToUse::100-109               3870      5.14%     61.65% # Distribution of cycle latency between the first time a load is issued and its completion (Unspecified)
system.cpu.lsq0.loadToUse::110-119               4102      5.45%     67.10% # Distribution of cycle latency between the first time a load is issued and its completion (Unspecified)
system.cpu.lsq0.loadToUse::120-129               3680      4.89%     71.99% # Distribution of cycle latency between the first time a load is issued and its completion (Unspecified)
system.cpu.lsq0.loadToUse::130-139               2755      3.66%     75.65% # Distribution of cycle latency between the first time a load is issued and its completion (Unspecified)
system.cpu.lsq0.loadToUse::140-149               2757      3.66%     79.31% # Distribution of cycle latency between the first time a load is issued and its completion (Unspecified)
system.cpu.lsq0.loadToUse::150-159               2303      3.06%     82.37% # Distribution of cycle latency between the first time a load is issued and its completion (Unspecified)
system.cpu.lsq0.loadToUse::160-169               1847      2.45%     84.82% # Distribution of cycle latency between the first time a load is issued and its completion (Unspecified)
system.cpu.lsq0.loadToUse::170-179               1898      2.52%     87.35% # Distribution of cycle latency between the first time a load is issued and its completion (Unspecified)
system.cpu.lsq0.loadToUse::180-189               1595      2.12%     89.46% # Distribution of cycle latency between the first time a load is issued and its completion (Unspecified)
system.cpu.lsq0.loadToUse::190-199               1255      1.67%     91.13% # Distribution of cycle latency between the first time a load is issued and its completion (Unspecified)
system.cpu.lsq0.loadToUse::200-209               1112      1.48%     92.61% # Distribution of cycle latency between the first time a load is issued and its completion (Unspecified)
system.cpu.lsq0.loadToUse::210-219                987      1.31%     93.92% # Distribution of cycle latency between the first time a load is issued and its completion (Unspecified)
system.cpu.lsq0.loadToUse::220-229                788      1.05%     94.97% # Distribution of cycle latency between the first time a load is issued and its completion (Unspecified)
system.cpu.lsq0.loadToUse::230-239                730      0.97%     95.94% # Distribution of cycle latency between the first time a load is issued and its completion (Unspecified)
system.cpu.lsq0.loadToUse::240-249                575      0.76%     96.70% # Distribution of cycle latency between the first time a load is issued and its completion (Unspecified)
system.cpu.lsq0.loadToUse::250-259                503      0.67%     97.37% # Distribution of cycle latency between the first time a load is issued and its completion (Unspecified)
system.cpu.lsq0.loadToUse::260-269                403      0.54%     97.90% # Distribution of cycle latency between the first time a load is issued and its completion (Unspecified)
system.cpu.lsq0.loadToUse::270-279                345      0.46%     98.36% # Distribution of cycle latency between the first time a load is issued and its completion (Unspecified)
system.cpu.lsq0.loadToUse::280-289                266      0.35%     98.72% # Distribution of cycle latency between the first time a load is issued and its completion (Unspecified)
system.cpu.lsq0.loadToUse::290-299                208      0.28%     98.99% # Distribution of cycle latency between the first time a load is issued and its completion (Unspecified)
system.cpu.lsq0.loadToUse::overflows              759      1.01%    100.00% # Distribution of cycle latency between the first time a load is issued and its completion (Unspecified)
system.cpu.lsq0.loadToUse::min_value                2                       # Distribution of cycle latency between the first time a load is issued and its completion (Unspecified)
system.cpu.lsq0.loadToUse::max_value              740                       # Distribution of cycle latency between the first time a load is issued and its completion (Unspecified)
system.cpu.lsq0.loadToUse::total                75280                       # Distribution of cycle latency between the first time a load is issued and its completion (Unspecified)
system.cpu.mmu.dtb.rdAccesses                   81080                       # TLB accesses on read requests (Count)
system.cpu.mmu.dtb.wrAccesses                    2244                       # TLB accesses on write requests (Count)
[...]
system.victimbus.transDist::ReadExResp            118                       # Transaction distribution (Count)
system.victimbus.transDist::ReadSharedReq        47337                       # Transaction distribution (Count)
system.victimbus.pktCount_system.cpu.dcache.mem_side_port::system.victimcache.cpu_side_port       142238                       # Packet count per connected requestor and responder (Count)
system.victimbus.pktSize_system.cpu.dcache.mem_side_port::system.victimcache.cpu_side_port      6061760                       # Cumulative packet size per connected requestor and responder (Byte)
system.victimbus.snoops                         63247                       # Total snoops (Count)
system.victimbus.snoopTraffic                 4047808                       # Total snoop traffic (Byte)
system.victimbus.snoopFanout::samples          110736                       # Request fanout histogram (Count)
system.victimbus.snoopFanout::mean           0.286465                       # Request fanout histogram (Count)
system.victimbus.snoopFanout::stdev          0.452111                       # Request fanout histogram (Count)
system.victimbus.snoopFanout::underflows            0      0.00%      0.00% # Request fanout histogram (Count)
system.victimbus.snoopFanout::0                 79014     71.35%     71.35% # Request fanout histogram (Count)
system.victimbus.snoopFanout::1                 31722     28.65%    100.00% # Request fanout histogram (Count)
system.victimbus.snoopFanout::overflows             0      0.00%    100.00% # Request fanout histogram (Count)
system.victimbus.snoopFanout::min_value             0                       # Request fanout histogram (Count)
system.victimbus.snoopFanout::max_value             1                       # Request fanout histogram (Count)
system.victimbus.snoopFanout::total            110736                       # Request fanout histogram (Count)
system.victimbus.power_state.pwrStateResidencyTicks::UNDEFINED    417995000                       # Cumulative time (in ticks) in various power states (Tick)
system.victimbus.reqLayer0.occupancy        144619694                       # Layer occupancy (ticks) (Tick)
system.victimbus.reqLayer0.utilization            0.3                       # Layer utilization (Ratio)
system.victimbus.respLayer0.occupancy       136017885                       # Layer occupancy (ticks) (Tick)
system.victimbus.respLayer0.utilization           0.3                       # Layer utilization (Ratio)
system.victimbus.snoop_filter.totRequests        96055                       # Total number of requests made to the snoop filter. (Count)
system.victimbus.snoop_filter.hitSingleRequests        48600                       # Number of requests hitting in the snoop filter with a single holder of the requested data. (Count)
system.victimbus.snoop_filter.hitMultiRequests            0                       # Number of requests hitting in the snoop filter with multiple (>1) holders of the requested data. (Count)
system.victimbus.snoop_filter.totSnoops         31722                       # Total number of snoops made to the snoop filter. (Count)
system.victimbus.snoop_filter.hitSingleSnoops        31722                       # Number of snoops hitting in the snoop filter with a single holder of the requested data. (Count)
system.victimbus.snoop_filter.hitMultiSnoops            0                       # Number of snoops hitting in the snoop filter with multiple (>1) holders of the requested data. (Count)
system.victimcache.demandHits::cpu.data         15733                       # number of demand (read+write) hits (Count)
system.victimcache.demandHits::total            15733                       # number of demand (read+write) hits (Count)
system.victimcache.overallHits::cpu.data        15733                       # number of overall hits (Count)
system.victimcache.overallHits::total           15733                       # number of overall hits (Count)
system.victimcache.demandMisses::cpu.data        31722                       # number of demand (read+write) misses (Count)
system.victimcache.demandMisses::total          31722                       # number of demand (read+write) misses (Count)
system.victimcache.overallMisses::cpu.data        31722                       # number of overall misses (Count)
system.victimcache.overallMisses::total         31722                       # number of overall misses (Count)
system.victimcache.demandMissLatency::cpu.data   1243263000                       # number of demand (read+write) miss ticks (Tick)
system.victimcache.demandMissLatency::total   1243263000                       # number of demand (read+write) miss ticks (Tick)
system.victimcache.overallMissLatency::cpu.data   1243263000                       # number of overall miss ticks (Tick)
system.victimcache.overallMissLatency::total   1243263000                       # number of overall miss ticks (Tick)
system.victimcache.demandAccesses::cpu.data        47455                       # number of demand (read+write) accesses (Count)
system.victimcache.demandAccesses::total        47455                       # number of demand (read+write) accesses (Count)
system.victimcache.overallAccesses::cpu.data        47455                       # number of overall (read+write) accesses (Count)
system.victimcache.overallAccesses::total        47455                       # number of overall (read+write) accesses (Count)
system.victimcache.demandMissRate::cpu.data     0.668465                       # miss rate for demand accesses (Ratio)
system.victimcache.demandMissRate::total     0.668465                       # miss rate for demand accesses (Ratio)
system.victimcache.overallMissRate::cpu.data     0.668465                       # miss rate for overall accesses (Ratio)
system.victimcache.overallMissRate::total     0.668465                       # miss rate for overall accesses (Ratio)
system.victimcache.demandAvgMissLatency::cpu.data 39192.453187                       # average overall miss latency ((Cycle/Count))
system.victimcache.demandAvgMissLatency::total 39192.453187                       # average overall miss latency ((Cycle/Count))
system.victimcache.overallAvgMissLatency::cpu.data 39192.453187                       # average overall miss latency ((Cycle/Count))
system.victimcache.overallAvgMissLatency::total 39192.453187                       # average overall miss latency ((Cycle/Count))
system.victimcache.blockedCycles::no_mshrs       167630                       # number of cycles access was blocked (Cycle)
system.victimcache.blockedCycles::no_targets            0                       # number of cycles access was blocked (Cycle)
system.victimcache.blockedCauses::no_mshrs        17926                       # number of times access was blocked (Count)
system.victimcache.blockedCauses::no_targets            0                       # number of times access was blocked (Count)
system.victimcache.avgBlocked::no_mshrs      9.351222                       # average number of cycles each access was blocked ((Cycle/Count))
system.victimcache.avgBlocked::no_targets          nan                       # average number of cycles each access was blocked ((Cycle/Count))
system.victimcache.writebacks::writebacks        63247                       # number of writebacks (Count)
system.victimcache.writebacks::total            63247                       # number of writebacks (Count)
system.victimcache.demandMshrMisses::cpu.data        31722                       # number of demand (read+write) MSHR misses (Count)
system.victimcache.demandMshrMisses::total        31722                       # number of demand (read+write) MSHR misses (Count)
system.victimcache.overallMshrMisses::cpu.data        31722                       # number of overall MSHR misses (Count)
system.victimcache.overallMshrMisses::total        31722                       # number of overall MSHR misses (Count)
system.victimcache.demandMshrMissLatency::cpu.data   1243263000                       # number of demand (read+write) MSHR miss ticks (Tick)
system.victimcache.demandMshrMissLatency::total   1243263000                       # number of demand (read+write) MSHR miss ticks (Tick)
system.victimcache.overallMshrMissLatency::cpu.data   1243263000                       # number of overall MSHR miss ticks (Tick)
system.victimcache.overallMshrMissLatency::total   1243263000                       # number of overall MSHR miss ticks (Tick)
system.victimcache.demandMshrMissRate::cpu.data     0.668465                       # mshr miss ratio for demand accesses (Ratio)
system.victimcache.demandMshrMissRate::total     0.668465                       # mshr miss ratio for demand accesses (Ratio)
system.victimcache.overallMshrMissRate::cpu.data     0.668465                       # mshr miss ratio for overall accesses (Ratio)
system.victimcache.overallMshrMissRate::total     0.668465                       # mshr miss ratio for overall accesses (Ratio)
system.victimcache.demandAvgMshrMissLatency::cpu.data 39192.453187                       # average overall mshr miss latency ((Cycle/Count))
system.victimcache.demandAvgMshrMissLatency::total 39192.453187                       # average overall mshr miss latency ((Cycle/Count))
system.victimcache.overallAvgMshrMissLatency::cpu.data 39192.453187                       # average overall mshr miss latency ((Cycle/Count))
system.victimcache.overallAvgMshrMissLatency::total 39192.453187                       # average overall mshr miss latency ((Cycle/Count))
system.victimcache.replacements                 31525                       # number of replacements (Count)
system.victimcache.ReadExReq.misses::cpu.data          118                       # number of ReadExReq misses (Count)
system.victimcache.ReadExReq.misses::total          118                       # number of ReadExReq misses (Count)
system.victimcache.ReadExReq.missLatency::cpu.data     12103000                       # number of ReadExReq miss ticks (Tick)
system.victimcache.ReadExReq.missLatency::total     12103000                       # number of ReadExReq miss ticks (Tick)
system.victimcache.ReadExReq.accesses::cpu.data          118                       # number of ReadExReq accesses(hits+misses) (Count)
system.victimcache.ReadExReq.accesses::total          118                       # number of ReadExReq accesses(hits+misses) (Count)
system.victimcache.ReadExReq.missRate::cpu.data            1                       # miss rate for ReadExReq accesses (Ratio)
system.victimcache.ReadExReq.missRate::total            1                       # miss rate for ReadExReq accesses (Ratio)
system.victimcache.ReadExReq.avgMissLatency::cpu.data 102567.796610                       # average ReadExReq miss latency ((Tick/Count))
system.victimcache.ReadExReq.avgMissLatency::total 102567.796610                       # average ReadExReq miss latency ((Tick/Count))
system.victimcache.ReadExReq.mshrMisses::cpu.data          118                       # number of ReadExReq MSHR misses (Count)
system.victimcache.ReadExReq.mshrMisses::total          118                       # number of ReadExReq MSHR misses (Count)
system.victimcache.ReadExReq.mshrMissLatency::cpu.data     12103000                       # number of ReadExReq MSHR miss ticks (Tick)
system.victimcache.ReadExReq.mshrMissLatency::total     12103000                       # number of ReadExReq MSHR miss ticks (Tick)
system.victimcache.ReadExReq.mshrMissRate::cpu.data            1                       # mshr miss rate for ReadExReq accesses (Ratio)
system.victimcache.ReadExReq.mshrMissRate::total            1                       # mshr miss rate for ReadExReq accesses (Ratio)
system.victimcache.ReadExReq.avgMshrMissLatency::cpu.data 102567.796610                       # average ReadExReq mshr miss latency ((Tick/Count))
system.victimcache.ReadExReq.avgMshrMissLatency::total 102567.796610                       # average ReadExReq mshr miss latency ((Tick/Count))
system.victimcache.ReadSharedReq.hits::cpu.data        15733                       # number of ReadSharedReq hits (Count)
system.victimcache.ReadSharedReq.hits::total        15733                       # number of ReadSharedReq hits (Count)
system.victimcache.ReadSharedReq.misses::cpu.data        31604                       # number of ReadSharedReq misses (Count)
system.victimcache.ReadSharedReq.misses::total        31604                       # number of ReadSharedReq misses (Count)
system.victimcache.ReadSharedReq.missLatency::cpu.data   1231160000                       # number of ReadSharedReq miss ticks (Tick)
system.victimcache.ReadSharedReq.missLatency::total   1231160000                       # number of ReadSharedReq miss ticks (Tick)
system.victimcache.ReadSharedReq.accesses::cpu.data        47337                       # number of ReadSharedReq accesses(hits+misses) (Count)
system.victimcache.ReadSharedReq.accesses::total        47337                       # number of ReadSharedReq accesses(hits+misses) (Count)
system.victimcache.ReadSharedReq.missRate::cpu.data     0.667638                       # miss rate for ReadSharedReq accesses (Ratio)
system.victimcache.ReadSharedReq.missRate::total     0.667638                       # miss rate for ReadSharedReq accesses (Ratio)
system.victimcache.ReadSharedReq.avgMissLatency::cpu.data 38955.828376                       # average ReadSharedReq miss latency ((Tick/Count))
system.victimcache.ReadSharedReq.avgMissLatency::total 38955.828376                       # average ReadSharedReq miss latency ((Tick/Count))
system.victimcache.ReadSharedReq.mshrMisses::cpu.data        31604                       # number of ReadSharedReq MSHR misses (Count)
system.victimcache.ReadSharedReq.mshrMisses::total        31604                       # number of ReadSharedReq MSHR misses (Count)
system.victimcache.ReadSharedReq.mshrMissLatency::cpu.data   1231160000                       # number of ReadSharedReq MSHR miss ticks (Tick)
system.victimcache.ReadSharedReq.mshrMissLatency::total   1231160000                       # number of ReadSharedReq MSHR miss ticks (Tick)
system.victimcache.ReadSharedReq.mshrMissRate::cpu.data     0.667638                       # mshr miss rate for ReadSharedReq accesses (Ratio)
system.victimcache.ReadSharedReq.mshrMissRate::total     0.667638                       # mshr miss rate for ReadSharedReq accesses (Ratio)
system.victimcache.ReadSharedReq.avgMshrMissLatency::cpu.data 38955.828376                       # average ReadSharedReq mshr miss latency ((Tick/Count))
system.victimcache.ReadSharedReq.avgMshrMissLatency::total 38955.828376                       # average ReadSharedReq mshr miss latency ((Tick/Count))
system.victimcache.UpgradeReq.misses::cpu.data           34                       # number of UpgradeReq misses (Count)
system.victimcache.UpgradeReq.misses::total           34                       # number of UpgradeReq misses (Count)
system.victimcache.UpgradeReq.accesses::cpu.data           34                       # number of UpgradeReq accesses(hits+misses) (Count)
system.victimcache.UpgradeReq.accesses::total           34                       # number of UpgradeReq accesses(hits+misses) (Count)
system.victimcache.UpgradeReq.missRate::cpu.data            1                       # miss rate for UpgradeReq accesses (Ratio)
system.victimcache.UpgradeReq.missRate::total            1                       # miss rate for UpgradeReq accesses (Ratio)
system.victimcache.UpgradeReq.mshrMisses::cpu.data           34                       # number of UpgradeReq MSHR misses (Count)
system.victimcache.UpgradeReq.mshrMisses::total           34                       # number of UpgradeReq MSHR misses (Count)
system.victimcache.UpgradeReq.mshrMissLatency::cpu.data      1713000                       # number of UpgradeReq MSHR miss ticks (Tick)
system.victimcache.UpgradeReq.mshrMissLatency::total      1713000                       # number of UpgradeReq MSHR miss ticks (Tick)
system.victimcache.UpgradeReq.mshrMissRate::cpu.data            1                       # mshr miss rate for UpgradeReq accesses (Ratio)
system.victimcache.UpgradeReq.mshrMissRate::total            1                       # mshr miss rate for UpgradeReq accesses (Ratio)
system.victimcache.UpgradeReq.avgMshrMissLatency::cpu.data 50382.352941                       # average UpgradeReq mshr miss latency ((Tick/Count))
system.victimcache.UpgradeReq.avgMshrMissLatency::total 50382.352941                       # average UpgradeReq mshr miss latency ((Tick/Count))
system.victimcache.WritebackClean.hits::writebacks        47214                       # number of WritebackClean hits (Count)
system.victimcache.WritebackClean.hits::total        47214                       # number of WritebackClean hits (Count)
system.victimcache.WritebackClean.accesses::writebacks        47214                       # number of WritebackClean accesses(hits+misses) (Count)
system.victimcache.WritebackClean.accesses::total        47214                       # number of WritebackClean accesses(hits+misses) (Count)
system.victimcache.WritebackDirty.hits::writebacks           46                       # number of WritebackDirty hits (Count)
system.victimcache.WritebackDirty.hits::total           46                       # number of WritebackDirty hits (Count)
system.victimcache.WritebackDirty.accesses::writebacks           46                       # number of WritebackDirty accesses(hits+misses) (Count)
system.victimcache.WritebackDirty.accesses::total           46                       # number of WritebackDirty accesses(hits+misses) (Count)
system.victimcache.power_state.pwrStateResidencyTicks::UNDEFINED    417995000                       # Cumulative time (in ticks) in various power states (Tick)
system.victimcache.tags.tagsInUse            1.824082                       # Average ticks per tags in use ((Tick/Count))
system.victimcache.tags.totalRefs               62993                       # Total number of references to valid blocks. (Count)
system.victimcache.tags.sampledRefs             47260                       # Sample count of references to valid blocks. (Count)
system.victimcache.tags.avgRefs              1.332903                       # Average number of references to valid blocks. ((Count/Count))
system.victimcache.tags.warmupTick           17963000                       # The tick when the warmup percentage was hit. (Tick)
system.victimcache.tags.occupancies::writebacks     1.824082                       # Average occupied blocks per tick, per requestor ((Count/Tick))
system.victimcache.tags.avgOccs::writebacks     0.912041                       # Average percentage of cache occupancy ((Ratio/Tick))
system.victimcache.tags.avgOccs::total       0.912041                       # Average percentage of cache occupancy ((Ratio/Tick))
system.victimcache.tags.occupanciesTaskId::1024            2                       # Occupied blocks per task id (Count)
system.victimcache.tags.ageTaskId_1024::0            2                       # Occupied blocks per task id, per block age (Count)
system.victimcache.tags.ratioOccsTaskId::1024            1                       # Ratio of occupied blocks and all blocks, per task id (Ratio)
system.victimcache.tags.tagAccesses            236758                       # Number of tag accesses (Count)
system.victimcache.tags.dataAccesses           236758                       # Number of data accesses (Count)
system.victimcache.tags.power_state.pwrStateResidencyTicks::UNDEFINED    417995000                       # Cumulative time (in ticks) in various power states (Tick)
system.workload.inst.arm                            0                       # number of arm instructions executed (Count)
system.workload.inst.quiesce                        0                       # number of quiesce instructions executed (Count)

---------- End Simulation Statistics   ----------
