
---------- Begin Simulation Statistics ----------
simSeconds                                   0.000212                       # Number of seconds simulated (Second)
simTicks                                    212247000                       # Number of ticks simulated (Tick)
finalTick                                   212247000                       # Number of ticks from beginning of simulation (restored from checkpoints and never reset) (Tick)
simFreq                                  1000000000000                       # The number of ticks per simulated second ((Tick/Second))
hostSeconds                                      0.26                       # Real time elapsed on the host (Second)
hostTickRate                                817412049                       # The number of ticks simulated per host second (ticks/s) ((Tick/Second))
hostMemory                                     644968                       # Number of bytes of host memory used (Byte)
simInsts                                        49561                       # Number of instructions simulated (Count)
simOps                                          90422                       # Number of ops (including micro ops) simulated (Count)
hostInstRate                                   190782                       # Simulator instruction rate (inst/s) ((Count/Second))
hostOpRate                                     348059                       # Simulator op (including micro ops) rate (op/s) ((Count/Second))
system.clk_domain.clock                          1000                       # Clock period in ticks (Tick)
system.clk_domain.voltage_domain.voltage            1                       # Voltage in Volts (Volt)
system.cpu.numCycles                           212247                       # Number of cpu cycles simulated (Cycle)
system.cpu.numWorkItemsStarted                      0                       # Number of work items this cpu started (Count)
system.cpu.numWorkItemsCompleted                    0                       # Number of work items this cpu completed (Count)
system.cpu.numInsts                             49561                       # Number of instructions committed (Count)
system.cpu.numOps                               90422                       # Number of ops (including micro ops) committed (Count)
system.cpu.numDiscardedOps                      36805                       # Number of ops (including micro ops) which were discarded before commit (Count)
system.cpu.numFetchSuspends                         0                       # Number of times Execute suspended instruction fetching (Count)
system.cpu.cpi                               4.282541                       # CPI: cycles per instruction ((Cycle/Count))
system.cpu.ipc                               0.233506                       # IPC: instructions per cycle ((Count/Cycle))
system.cpu.committedInstType_0::No_OpClass          227      0.25%      0.25% # Class of committed instruction (Count)
system.cpu.committedInstType_0::IntAlu          86474     95.63%     95.88% # Class of committed instruction (Count)
system.cpu.committedInstType_0::IntMult             5      0.01%     95.89% # Class of committed instruction (Count)
system.cpu.committedInstType_0::IntDiv             21      0.02%     95.91% # Class of committed instruction (Count)
system.cpu.committedInstType_0::FloatAdd          135      0.15%     96.06% # Class of committed instruction (Count)
system.cpu.committedInstType_0::FloatCmp            0      0.00%     96.06% # Class of committed instruction (Count)
system.cpu.committedInstType_0::FloatCvt            0      0.00%     96.06% # Class of committed instruction (Count)
system.cpu.committedInstType_0::FloatMult            0      0.00%     96.06% # Class of committed instruction (Count)
system.cpu.committedInstType_0::FloatMultAcc            0      0.00%     96.06% # Class of committed instruction (Count)
system.cpu.committedInstType_0::FloatDiv            0      0.00%     96.06% # Class of committed instruction (Count)
system.cpu.committedInstType_0::FloatMisc            0      0.00%     96.06% # Class of committed instruction (Count)
system.cpu.committedInstType_0::FloatSqrt            0      0.00%     96.06% # Class of committed instruction (Count)
system.cpu.committedInstType_0::SimdAdd             0      0.00%     96.06% # Class of committed instruction (Count)
system.cpu.committedInstType_0::SimdAddAcc            0      0.00%     96.06% # Class of committed instruction (Count)
system.cpu.committedInstType_0::SimdAlu            94      0.10%     96.17% # Class of committed instruction (Count)
system.cpu.committedInstType_0::SimdCmp             0      0.00%     96.17% # Class of committed instruction (Count)
system.cpu.committedInstType_0::SimdCvt            46      0.05%     96.22% # Class of committed instruction (Count)
system.cpu.committedInstType_0::SimdMisc          215      0.24%     96.46% # Class of committed instruction (Count)
system.cpu.committedInstType_0::SimdMult            0      0.00%     96.46% # Class of committed instruction (Count)
system.cpu.committedInstType_0::SimdMultAcc            0      0.00%     96.46% # Class of committed instruction (Count)
system.cpu.committedInstType_0::SimdShift            0      0.00%     96.46% # Class of committed instruction (Count)
system.cpu.committedInstType_0::SimdShiftAcc            0      0.00%     96.46% # Class of committed instruction (Count)
system.cpu.committedInstType_0::SimdDiv             0      0.00%     96.46% # Class of committed instruction (Count)
system.cpu.committedInstType_0::SimdSqrt            0      0.00%     96.46% # Class of committed instruction (Count)
system.cpu.committedInstType_0::SimdFloatAdd            0      0.00%     96.46% # Class of committed instruction (Count)
system.cpu.committedInstType_0::SimdFloatAlu            0      0.00%     96.46% # Class of committed instruction (Count)
system.cpu.committedInstType_0::SimdFloatCmp            0      0.00%     96.46% # Class of committed instruction (Count)
system.cpu.committedInstType_0::SimdFloatCvt            0      0.00%     96.46% # Class of committed instruction (Count)
system.cpu.committedInstType_0::SimdFloatDiv            0      0.00%     96.46% # Class of committed instruction (Count)
system.cpu.committedInstType_0::SimdFloatMisc            0      0.00%     96.46% # Class of committed instruction (Count)
system.cpu.committedInstType_0::SimdFloatMult            0      0.00%     96.46% # Class of committed instruction (Count)
system.cpu.committedInstType_0::SimdFloatMultAcc            0      0.00%     96.46% # Class of committed instruction (Count)
system.cpu.committedInstType_0::SimdFloatSqrt            0      0.00%     96.46% # Class of committed instruction (Count)
system.cpu.committedInstType_0::SimdReduceAdd            0      0.00%     96.46% # Class of committed instruction (Count)
system.cpu.committedInstType_0::SimdReduceAlu            0      0.00%     96.46% # Class of committed instruction (Count)
system.cpu.committedInstType_0::SimdReduceCmp            0      0.00%     96.46% # Class of committed instruction (Count)
system.cpu.committedInstType_0::SimdFloatReduceAdd            0      0.00%     96.46% # Class of committed instruction (Count)
system.cpu.committedInstType_0::SimdFloatReduceCmp            0      0.00%     96.46% # Class of committed instruction (Count)
system.cpu.committedInstType_0::SimdAes             0      0.00%     96.46% # Class of committed instruction (Count)
system.cpu.committedInstType_0::SimdAesMix            0      0.00%     96.46% # Class of committed instruction (Count)
system.cpu.committedInstType_0::SimdSha1Hash            0      0.00%     96.46% # Class of committed instruction (Count)
system.cpu.committedInstType_0::SimdSha1Hash2            0      0.00%     96.46% # Class of committed instruction (Count)
system.cpu.committedInstType_0::SimdSha256Hash            0      0.00%     96.46% # Class of committed instruction (Count)
system.cpu.committedInstType_0::SimdSha256Hash2            0      0.00%     96.46% # Class of committed instruction (Count)
system.cpu.committedInstType_0::SimdShaSigma2            0      0.00%     96.46% # Class of committed instruction (Count)
system.cpu.committedInstType_0::SimdShaSigma3            0      0.00%     96.46% # Class of committed instruction (Count)
system.cpu.committedInstType_0::SimdPredAlu            0      0.00%     96.46% # Class of committed instruction (Count)
system.cpu.committedInstType_0::MemRead          1497      1.66%     98.11% # Class of committed instruction (Count)
system.cpu.committedInstType_0::MemWrite         1171      1.30%     99.41% # Class of committed instruction (Count)
system.cpu.committedInstType_0::FloatMemRead           62      0.07%     99.47% # Class of committed instruction (Count)
system.cpu.committedInstType_0::FloatMemWrite          475      0.53%    100.00% # Class of committed instruction (Count)
system.cpu.committedInstType_0::IprAccess            0      0.00%    100.00% # Class of committed instruction (Count)
system.cpu.committedInstType_0::InstPrefetch            0      0.00%    100.00% # Class of committed instruction (Count)
system.cpu.committedInstType_0::total           90422                       # Class of committed instruction (Count)
system.cpu.branchPred.lookups                       0                       # Number of BP lookups (Count)
system.cpu.branchPred.condPredicted                 0                       # Number of conditional branches predicted (Count)
system.cpu.branchPred.condIncorrect                 0                       # Number of conditional branches incorrect (Count)
system.cpu.branchPred.BTBLookups                    0                       # Number of BTB lookups (Count)
system.cpu.branchPred.BTBHits                       0                       # Number of BTB hits (Count)
system.cpu.branchPred.BTBHitRatio                 nan                       # BTB Hit Ratio (Ratio)
system.cpu.branchPred.RASUsed                       0                       # Number of times the RAS was used to get a target. (Count)
system.cpu.branchPred.RASIncorrect                  0                       # Number of incorrect RAS predictions. (Count)
system.cpu.branchPred.indirectLookups               0                       # Number of indirect predictor lookups. (Count)
system.cpu.branchPred.indirectHits                  0                       # Number of indirect target hits. (Count)
system.cpu.branchPred.indirectMisses                0                       # Number of indirect misses. (Count)
system.cpu.branchPred.indirectMispredicted            0                       # Number of mispredicted indirect branches. (Count)
system.cpu.dcache.demandHits::cpu.data           3159                       # number of demand (read+write) hits (Count)
system.cpu.dcache.demandHits::total              3159                       # number of demand (read+write) hits (Count)
system.cpu.dcache.overallHits::cpu.data          3159                       # number of overall hits (Count)
system.cpu.dcache.overallHits::total             3159                       # number of overall hits (Count)
system.cpu.dcache.demandMisses::cpu.data          361                       # number of demand (read+write) misses (Count)
system.cpu.dcache.demandMisses::total             361                       # number of demand (read+write) misses (Count)
system.cpu.dcache.overallMisses::cpu.data          361                       # number of overall misses (Count)
system.cpu.dcache.overallMisses::total            361                       # number of overall misses (Count)
system.cpu.dcache.demandMissLatency::cpu.data     36341000                       # number of demand (read+write) miss ticks (Tick)
system.cpu.dcache.demandMissLatency::total     36341000                       # number of demand (read+write) miss ticks (Tick)
system.cpu.dcache.overallMissLatency::cpu.data     36341000                       # number of overall miss ticks (Tick)
system.cpu.dcache.overallMissLatency::total     36341000                       # number of overall miss ticks (Tick)
system.cpu.dcache.demandAccesses::cpu.data         3520                       # number of demand (read+write) accesses (Count)
system.cpu.dcache.demandAccesses::total          3520                       # number of demand (read+write) accesses (Count)
system.cpu.dcache.overallAccesses::cpu.data         3520                       # number of overall (read+write) accesses (Count)
system.cpu.dcache.overallAccesses::total         3520                       # number of overall (read+write) accesses (Count)
system.cpu.dcache.demandMissRate::cpu.data     0.102557                       # miss rate for demand accesses (Ratio)
system.cpu.dcache.demandMissRate::total      0.102557                       # miss rate for demand accesses (Ratio)
system.cpu.dcache.overallMissRate::cpu.data     0.102557                       # miss rate for overall accesses (Ratio)
system.cpu.dcache.overallMissRate::total     0.102557                       # miss rate for overall accesses (Ratio)
system.cpu.dcache.demandAvgMissLatency::cpu.data 100667.590028                       # average overall miss latency ((Cycle/Count))
system.cpu.dcache.demandAvgMissLatency::total 100667.590028                       # average overall miss latency ((Cycle/Count))
system.cpu.dcache.overallAvgMissLatency::cpu.data 100667.590028                       # average overall miss latency ((Cycle/Count))
system.cpu.dcache.overallAvgMissLatency::total 100667.590028                       # average overall miss latency ((Cycle/Count))
system.cpu.dcache.blockedCycles::no_mshrs            0                       # number of cycles access was blocked (Cycle)
system.cpu.dcache.blockedCycles::no_targets            0                       # number of cycles access was blocked (Cycle)
system.cpu.dcache.blockedCauses::no_mshrs            0                       # number of times access was blocked (Count)
system.cpu.dcache.blockedCauses::no_targets            0                       # number of times access was blocked (Count)
system.cpu.dcache.avgBlocked::no_mshrs            nan                       # average number of cycles each access was blocked ((Cycle/Count))
system.cpu.dcache.avgBlocked::no_targets          nan                       # average number of cycles each access was blocked ((Cycle/Count))
system.cpu.dcache.demandMshrHits::cpu.data          102                       # number of demand (read+write) MSHR hits (Count)
system.cpu.dcache.demandMshrHits::total           102                       # number of demand (read+write) MSHR hits (Count)
system.cpu.dcache.overallMshrHits::cpu.data          102                       # number of overall MSHR hits (Count)
system.cpu.dcache.overallMshrHits::total          102                       # number of overall MSHR hits (Count)
system.cpu.dcache.demandMshrMisses::cpu.data          259                       # number of demand (read+write) MSHR misses (Count)
system.cpu.dcache.demandMshrMisses::total          259                       # number of demand (read+write) MSHR misses (Count)
system.cpu.dcache.overallMshrMisses::cpu.data          259                       # number of overall MSHR misses (Count)
system.cpu.dcache.overallMshrMisses::total          259                       # number of overall MSHR misses (Count)
system.cpu.dcache.demandMshrMissLatency::cpu.data     26329000                       # number of demand (read+write) MSHR miss ticks (Tick)
system.cpu.dcache.demandMshrMissLatency::total     26329000                       # number of demand (read+write) MSHR miss ticks (Tick)
system.cpu.dcache.overallMshrMissLatency::cpu.data     26329000                       # number of overall MSHR miss ticks (Tick)
system.cpu.dcache.overallMshrMissLatency::total     26329000                       # number of overall MSHR miss ticks (Tick)
system.cpu.dcache.demandMshrMissRate::cpu.data     0.073580                       # mshr miss ratio for demand accesses (Ratio)
system.cpu.dcache.demandMshrMissRate::total     0.073580                       # mshr miss ratio for demand accesses (Ratio)
system.cpu.dcache.overallMshrMissRate::cpu.data     0.073580                       # mshr miss ratio for overall accesses (Ratio)
system.cpu.dcache.overallMshrMissRate::total     0.073580                       # mshr miss ratio for overall accesses (Ratio)
system.cpu.dcache.demandAvgMshrMissLatency::cpu.data 101656.370656                       # average overall mshr miss latency ((Cycle/Count))
system.cpu.dcache.demandAvgMshrMissLatency::total 101656.370656                       # average overall mshr miss latency ((Cycle/Count))
system.cpu.dcache.overallAvgMshrMissLatency::cpu.data 101656.370656                       # average overall mshr miss latency ((Cycle/Count))
system.cpu.dcache.overallAvgMshrMissLatency::total 101656.370656                       # average overall mshr miss latency ((Cycle/Count))
system.cpu.dcache.replacements                      0                       # number of replacements (Count)
system.cpu.dcache.ReadReq.hits::cpu.data         1747                       # number of ReadReq hits (Count)
system.cpu.dcache.ReadReq.hits::total            1747                       # number of ReadReq hits (Count)
system.cpu.dcache.ReadReq.misses::cpu.data          128                       # number of ReadReq misses (Count)
system.cpu.dcache.ReadReq.misses::total           128                       # number of ReadReq misses (Count)
system.cpu.dcache.ReadReq.missLatency::cpu.data     13988000                       # number of ReadReq miss ticks (Tick)
system.cpu.dcache.ReadReq.missLatency::total     13988000                       # number of ReadReq miss ticks (Tick)
system.cpu.dcache.ReadReq.accesses::cpu.data         1875                       # number of ReadReq accesses(hits+misses) (Count)
system.cpu.dcache.ReadReq.accesses::total         1875                       # number of ReadReq accesses(hits+misses) (Count)
system.cpu.dcache.ReadReq.missRate::cpu.data     0.068267                       # miss rate for ReadReq accesses (Ratio)
system.cpu.dcache.ReadReq.missRate::total     0.068267                       # miss rate for ReadReq accesses (Ratio)
system.cpu.dcache.ReadReq.avgMissLatency::cpu.data 109281.250000                       # average ReadReq miss latency ((Tick/Count))
system.cpu.dcache.ReadReq.avgMissLatency::total 109281.250000                       # average ReadReq miss latency ((Tick/Count))
system.cpu.dcache.ReadReq.mshrHits::cpu.data           14                       # number of ReadReq MSHR hits (Count)
system.cpu.dcache.ReadReq.mshrHits::total           14                       # number of ReadReq MSHR hits (Count)
system.cpu.dcache.ReadReq.mshrMisses::cpu.data          114                       # number of ReadReq MSHR misses (Count)
system.cpu.dcache.ReadReq.mshrMisses::total          114                       # number of ReadReq MSHR misses (Count)
system.cpu.dcache.ReadReq.mshrMissLatency::cpu.data     12393000                       # number of ReadReq MSHR miss ticks (Tick)
system.cpu.dcache.ReadReq.mshrMissLatency::total     12393000                       # number of ReadReq MSHR miss ticks (Tick)
system.cpu.dcache.ReadReq.mshrMissRate::cpu.data     0.060800                       # mshr miss rate for ReadReq accesses (Ratio)
system.cpu.dcache.ReadReq.mshrMissRate::total     0.060800                       # mshr miss rate for ReadReq accesses (Ratio)
system.cpu.dcache.ReadReq.avgMshrMissLatency::cpu.data 108710.526316                       # average ReadReq mshr miss latency ((Tick/Count))
system.cpu.dcache.ReadReq.avgMshrMissLatency::total 108710.526316                       # average ReadReq mshr miss latency ((Tick/Count))
system.cpu.dcache.WriteReq.hits::cpu.data         1412                       # number of WriteReq hits (Count)
system.cpu.dcache.WriteReq.hits::total           1412                       # number of WriteReq hits (Count)
system.cpu.dcache.WriteReq.misses::cpu.data          233                       # number of WriteReq misses (Count)
system.cpu.dcache.WriteReq.misses::total          233                       # number of WriteReq misses (Count)
system.cpu.dcache.WriteReq.missLatency::cpu.data     22353000                       # number of WriteReq miss ticks (Tick)
system.cpu.dcache.WriteReq.missLatency::total     22353000                       # number of WriteReq miss ticks (Tick)
system.cpu.dcache.WriteReq.accesses::cpu.data         1645                       # number of WriteReq accesses(hits+misses) (Count)
system.cpu.dcache.WriteReq.accesses::total         1645                       # number of WriteReq accesses(hits+misses) (Count)
system.cpu.dcache.WriteReq.missRate::cpu.data     0.141641                       # miss rate for WriteReq accesses (Ratio)
system.cpu.dcache.WriteReq.missRate::total     0.141641                       # miss rate for WriteReq accesses (Ratio)
system.cpu.dcache.WriteReq.avgMissLatency::cpu.data 95935.622318                       # average WriteReq miss latency ((Tick/Count))
system.cpu.dcache.WriteReq.avgMissLatency::total 95935.622318                       # average WriteReq miss latency ((Tick/Count))
system.cpu.dcache.WriteReq.mshrHits::cpu.data           88                       # number of WriteReq MSHR hits (Count)
system.cpu.dcache.WriteReq.mshrHits::total           88                       # number of WriteReq MSHR hits (Count)
system.cpu.dcache.WriteReq.mshrMisses::cpu.data          145                       # number of WriteReq MSHR misses (Count)
system.cpu.dcache.WriteReq.mshrMisses::total          145                       # number of WriteReq MSHR misses (Count)
system.cpu.dcache.WriteReq.mshrMissLatency::cpu.data     13936000                       # number of WriteReq MSHR miss ticks (Tick)
system.cpu.dcache.WriteReq.mshrMissLatency::total     13936000                       # number of WriteReq MSHR miss ticks (Tick)
system.cpu.dcache.WriteReq.mshrMissRate::cpu.data     0.088146                       # mshr miss rate for WriteReq accesses (Ratio)
system.cpu.dcache.WriteReq.mshrMissRate::total     0.088146                       # mshr miss rate for WriteReq accesses (Ratio)
system.cpu.dcache.WriteReq.avgMshrMissLatency::cpu.data 96110.344828                       # average WriteReq mshr miss latency ((Tick/Count))
system.cpu.dcache.WriteReq.avgMshrMissLatency::total 96110.344828                       # average WriteReq mshr miss latency ((Tick/Count))
system.cpu.dcache.power_state.pwrStateResidencyTicks::UNDEFINED    212247000                       # Cumulative time (in ticks) in various power states (Tick)
system.cpu.dcache.tags.tagsInUse           182.249431                       # Average ticks per tags in use ((Tick/Count))
system.cpu.dcache.tags.totalRefs                 3424                       # Total number of references to valid blocks. (Count)
system.cpu.dcache.tags.sampledRefs                235                       # Sample count of references to valid blocks. (Count)
system.cpu.dcache.tags.avgRefs              14.570213                       # Average number of references to valid blocks. ((Count/Count))
system.cpu.dcache.tags.warmupTick              227000                       # The tick when the warmup percentage was hit. (Tick)
system.cpu.dcache.tags.occupancies::cpu.data   182.249431                       # Average occupied blocks per tick, per requestor ((Count/Tick))
system.cpu.dcache.tags.avgOccs::cpu.data     0.177978                       # Average percentage of cache occupancy ((Ratio/Tick))
system.cpu.dcache.tags.avgOccs::total        0.177978                       # Average percentage of cache occupancy ((Ratio/Tick))
system.cpu.dcache.tags.occupanciesTaskId::1024          235                       # Occupied blocks per task id (Count)
system.cpu.dcache.tags.ageTaskId_1024::0           17                       # Occupied blocks per task id, per block age (Count)
system.cpu.dcache.tags.ageTaskId_1024::2          218                       # Occupied blocks per task id, per block age (Count)
system.cpu.dcache.tags.ratioOccsTaskId::1024     0.229492                       # Ratio of occupied blocks and all blocks, per task id (Ratio)
system.cpu.dcache.tags.tagAccesses               7275                       # Number of tag accesses (Count)
system.cpu.dcache.tags.dataAccesses              7275                       # Number of data accesses (Count)
system.cpu.dcache.tags.power_state.pwrStateResidencyTicks::UNDEFINED    212247000                       # Cumulative time (in ticks) in various power states (Tick)
system.cpu.fetch2.intInstructions                  40                       # Number of integer instructions successfully decoded (Count)
system.cpu.fetch2.fpInstructions                    0                       # Number of floating point instructions successfully decoded (Count)
system.cpu.fetch2.vecInstructions                   0                       # Number of SIMD instructions successfully decoded (Count)
system.cpu.fetch2.loadInstructions                  0                       # Number of memory load instructions successfully decoded (Count)
system.cpu.fetch2.storeInstructions                 0                       # Number of memory store instructions successfully decoded (Count)
system.cpu.fetch2.amoInstructions                   0                       # Number of memory atomic instructions successfully decoded (Count)
system.cpu.icache.demandHits::cpu.inst          19748                       # number of demand (read+write) hits (Count)
system.cpu.icache.demandHits::total             19748                       # number of demand (read+write) hits (Count)
system.cpu.icache.overallHits::cpu.inst         19748                       # number of overall hits (Count)
system.cpu.icache.overallHits::total            19748                       # number of overall hits (Count)
system.cpu.icache.demandMisses::cpu.inst          572                       # number of demand (read+write) misses (Count)
system.cpu.icache.demandMisses::total             572                       # number of demand (read+write) misses (Count)
system.cpu.icache.overallMisses::cpu.inst          572                       # number of overall misses (Count)
system.cpu.icache.overallMisses::total            572                       # number of overall misses (Count)
system.cpu.icache.demandMissLatency::cpu.inst     60327000                       # number of demand (read+write) miss ticks (Tick)
system.cpu.icache.demandMissLatency::total     60327000                       # number of demand (read+write) miss ticks (Tick)
system.cpu.icache.overallMissLatency::cpu.inst     60327000                       # number of overall miss ticks (Tick)
system.cpu.icache.overallMissLatency::total     60327000                       # number of overall miss ticks (Tick)
system.cpu.icache.demandAccesses::cpu.inst        20320                       # number of demand (read+write) accesses (Count)
system.cpu.icache.demandAccesses::total         20320                       # number of demand (read+write) accesses (Count)
system.cpu.icache.overallAccesses::cpu.inst        20320                       # number of overall (read+write) accesses (Count)
system.cpu.icache.overallAccesses::total        20320                       # number of overall (read+write) accesses (Count)
system.cpu.icache.demandMissRate::cpu.inst     0.028150                       # miss rate for demand accesses (Ratio)
system.cpu.icache.demandMissRate::total      0.028150                       # miss rate for demand accesses (Ratio)
system.cpu.icache.overallMissRate::cpu.inst     0.028150                       # miss rate for overall accesses (Ratio)
system.cpu.icache.overallMissRate::total     0.028150                       # miss rate for overall accesses (Ratio)
system.cpu.icache.demandAvgMissLatency::cpu.inst 105466.783217                       # average overall miss latency ((Cycle/Count))
system.cpu.icache.demandAvgMissLatency::total 105466.783217                       # average overall miss latency ((Cycle/Count))
system.cpu.icache.overallAvgMissLatency::cpu.inst 105466.783217                       # average overall miss latency ((Cycle/Count))
system.cpu.icache.overallAvgMissLatency::total 105466.783217                       # average overall miss latency ((Cycle/Count))
system.cpu.icache.blockedCycles::no_mshrs            0                       # number of cycles access was blocked (Cycle)
system.cpu.icache.blockedCycles::no_targets            0                       # number of cycles access was blocked (Cycle)
system.cpu.icache.blockedCauses::no_mshrs            0                       # number of times access was blocked (Count)
system.cpu.icache.blockedCauses::no_targets            0                       # number of times access was blocked (Count)
system.cpu.icache.avgBlocked::no_mshrs            nan                       # average number of cycles each access was blocked ((Cycle/Count))
system.cpu.icache.avgBlocked::no_targets          nan                       # average number of cycles each access was blocked ((Cycle/Count))
system.cpu.icache.demandMshrMisses::cpu.inst          572                       # number of demand (read+write) MSHR misses (Count)
system.cpu.icache.demandMshrMisses::total          572                       # number of demand (read+write) MSHR misses (Count)
system.cpu.icache.overallMshrMisses::cpu.inst          572                       # number of overall MSHR misses (Count)
system.cpu.icache.overallMshrMisses::total          572                       # number of overall MSHR misses (Count)
system.cpu.icache.demandMshrMissLatency::cpu.inst     59185000                       # number of demand (read+write) MSHR miss ticks (Tick)
system.cpu.icache.demandMshrMissLatency::total     59185000                       # number of demand (read+write) MSHR miss ticks (Tick)
system.cpu.icache.overallMshrMissLatency::cpu.inst     59185000                       # number of overall MSHR miss ticks (Tick)
system.cpu.icache.overallMshrMissLatency::total     59185000                       # number of overall MSHR miss ticks (Tick)
system.cpu.icache.demandMshrMissRate::cpu.inst     0.028150                       # mshr miss ratio for demand accesses (Ratio)
system.cpu.icache.demandMshrMissRate::total     0.028150                       # mshr miss ratio for demand accesses (Ratio)
system.cpu.icache.overallMshrMissRate::cpu.inst     0.028150                       # mshr miss ratio for overall accesses (Ratio)
system.cpu.icache.overallMshrMissRate::total     0.028150                       # mshr miss ratio for overall accesses (Ratio)
system.cpu.icache.demandAvgMshrMissLatency::cpu.inst 103470.279720                       # average overall mshr miss latency ((Cycle/Count))
system.cpu.icache.demandAvgMshrMissLatency::total 103470.279720                       # average overall mshr miss latency ((Cycle/Count))
system.cpu.icache.overallAvgMshrMissLatency::cpu.inst 103470.279720                       # average overall mshr miss latency ((Cycle/Count))
system.cpu.icache.overallAvgMshrMissLatency::total 103470.279720                       # average overall mshr miss latency ((Cycle/Count))
system.cpu.icache.replacements                    317                       # number of replacements (Count)
system.cpu.icache.ReadReq.hits::cpu.inst        19748                       # number of ReadReq hits (Count)
system.cpu.icache.ReadReq.hits::total           19748                       # number of ReadReq hits (Count)
system.cpu.icache.ReadReq.misses::cpu.inst          572                       # number of ReadReq misses (Count)
system.cpu.icache.ReadReq.misses::total           572                       # number of ReadReq misses (Count)
system.cpu.icache.ReadReq.missLatency::cpu.inst     60327000                       # number of ReadReq miss ticks (Tick)
system.cpu.icache.ReadReq.missLatency::total     60327000                       # number of ReadReq miss ticks (Tick)
system.cpu.icache.ReadReq.accesses::cpu.inst        20320                       # number of ReadReq accesses(hits+misses) (Count)
system.cpu.icache.ReadReq.accesses::total        20320                       # number of ReadReq accesses(hits+misses) (Count)
system.cpu.icache.ReadReq.missRate::cpu.inst     0.028150                       # miss rate for ReadReq accesses (Ratio)
system.cpu.icache.ReadReq.missRate::total     0.028150                       # miss rate for ReadReq accesses (Ratio)
system.cpu.icache.ReadReq.avgMissLatency::cpu.inst 105466.783217                       # average ReadReq miss latency ((Tick/Count))
system.cpu.icache.ReadReq.avgMissLatency::total 105466.783217                       # average ReadReq miss latency ((Tick/Count))
system.cpu.icache.ReadReq.mshrMisses::cpu.inst          572                       # number of ReadReq MSHR misses (Count)
system.cpu.icache.ReadReq.mshrMisses::total          572                       # number of ReadReq MSHR misses (Count)
system.cpu.icache.ReadReq.mshrMissLatency::cpu.inst     59185000                       # number of ReadReq MSHR miss ticks (Tick)
system.cpu.icache.ReadReq.mshrMissLatency::total     59185000                       # number of ReadReq MSHR miss ticks (Tick)
system.cpu.icache.ReadReq.mshrMissRate::cpu.inst     0.028150                       # mshr miss rate for ReadReq accesses (Ratio)
system.cpu.icache.ReadReq.mshrMissRate::total     0.028150                       # mshr miss rate for ReadReq accesses (Ratio)
system.cpu.icache.ReadReq.avgMshrMissLatency::cpu.inst 103470.279720                       # average ReadReq mshr miss latency ((Tick/Count))
system.cpu.icache.ReadReq.avgMshrMissLatency::total 103470.279720                       # average ReadReq mshr miss latency ((Tick/Count))
system.cpu.icache.power_state.pwrStateResidencyTicks::UNDEFINED    212247000                       # Cumulative time (in ticks) in various power states (Tick)
system.cpu.icache.tags.tagsInUse           218.242863                       # Average ticks per tags in use ((Tick/Count))
system.cpu.icache.tags.totalRefs                20319                       # Total number of references to valid blocks. (Count)
system.cpu.icache.tags.sampledRefs                571                       # Sample count of references to valid blocks. (Count)
system.cpu.icache.tags.avgRefs              35.584939                       # Average number of references to valid blocks. ((Count/Count))
system.cpu.icache.tags.warmupTick              110000                       # The tick when the warmup percentage was hit. (Tick)
system.cpu.icache.tags.occupancies::cpu.inst   218.242863                       # Average occupied blocks per tick, per requestor ((Count/Tick))
system.cpu.icache.tags.avgOccs::cpu.inst     0.852511                       # Average percentage of cache occupancy ((Ratio/Tick))
system.cpu.icache.tags.avgOccs::total        0.852511                       # Average percentage of cache occupancy ((Ratio/Tick))
system.cpu.icache.tags.occupanciesTaskId::1024          254                       # Occupied blocks per task id (Count)
system.cpu.icache.tags.ageTaskId_1024::0           48                       # Occupied blocks per task id, per block age (Count)
system.cpu.icache.tags.ageTaskId_1024::2          206                       # Occupied blocks per task id, per block age (Count)
system.cpu.icache.tags.ratioOccsTaskId::1024     0.992188                       # Ratio of occupied blocks and all blocks, per task id (Ratio)
system.cpu.icache.tags.tagAccesses              41211                       # Number of tag accesses (Count)
system.cpu.icache.tags.dataAccesses             41211                       # Number of data accesses (Count)
system.cpu.icache.tags.power_state.pwrStateResidencyTicks::UNDEFINED    212247000                       # Cumulative time (in ticks) in various power states (Tick)
system.cpu.interrupts.clk_domain.clock          16000                       # Clock period in ticks (Tick)
system.cpu.mmu.dtb.rdAccesses                    2010                       # TLB accesses on read requests (Count)
system.cpu.mmu.dtb.wrAccesses                    1741                       # TLB accesses on write requests (Count)
system.cpu.mmu.dtb.rdMisses                        84                       # TLB misses on read requests (Count)
system.cpu.mmu.dtb.wrMisses                        32                       # TLB misses on write requests (Count)
system.cpu.mmu.dtb.walker.power_state.pwrStateResidencyTicks::UNDEFINED    212247000                       # Cumulative time (in ticks) in various power states (Tick)
system.cpu.mmu.itb.rdAccesses                       0                       # TLB accesses on read requests (Count)
system.cpu.mmu.itb.wrAccesses                   20320                       # TLB accesses on write requests (Count)
system.cpu.mmu.itb.rdMisses                         0                       # TLB misses on read requests (Count)
system.cpu.mmu.itb.wrMisses                        38                       # TLB misses on write requests (Count)
system.cpu.mmu.itb.walker.power_state.pwrStateResidencyTicks::UNDEFINED    212247000                       # Cumulative time (in ticks) in various power states (Tick)
system.cpu.power_state.pwrStateResidencyTicks::ON    212247000                       # Cumulative time (in ticks) in various power states (Tick)
system.cpu.thread_0.numInsts                    49561                       # Number of Instructions committed (Count)
system.cpu.thread_0.numOps                      90422                       # Number of Ops committed (Count)
system.cpu.thread_0.numMemRefs                      0                       # Number of Memory References (Count)
system.cpu.workload.numSyscalls                    10                       # Number of system calls (Count)
system.l2_victimbus.transDist::ReadResp           685                       # Transaction distribution (Count)
system.l2_victimbus.transDist::WritebackClean          806                       # Transaction distribution (Count)
system.l2_victimbus.transDist::CleanEvict          316                       # Transaction distribution (Count)
system.l2_victimbus.transDist::UpgradeReq           24                       # Transaction distribution (Count)
system.l2_victimbus.transDist::UpgradeResp           24                       # Transaction distribution (Count)
system.l2_victimbus.transDist::ReadExReq          121                       # Transaction distribution (Count)
system.l2_victimbus.transDist::ReadExResp          121                       # Transaction distribution (Count)
system.l2_victimbus.transDist::ReadCleanReq          685                       # Transaction distribution (Count)
system.l2_victimbus.pktCount_system.l2cache.mem_side_port::system.l2_victimcache.cpu_side_port         1976                       # Packet count per connected requestor and responder (Count)
system.l2_victimbus.pktSize_system.l2cache.mem_side_port::system.l2_victimcache.cpu_side_port        51584                       # Cumulative packet size per connected requestor and responder (Byte)
system.l2_victimbus.snoops                        806                       # Total snoops (Count)
system.l2_victimbus.snoopTraffic                51584                       # Total snoop traffic (Byte)
system.l2_victimbus.snoopFanout::samples         1636                       # Request fanout histogram (Count)
system.l2_victimbus.snoopFanout::mean        0.492665                       # Request fanout histogram (Count)
system.l2_victimbus.snoopFanout::stdev       0.500099                       # Request fanout histogram (Count)
system.l2_victimbus.snoopFanout::underflows            0      0.00%      0.00% # Request fanout histogram (Count)
system.l2_victimbus.snoopFanout::0                830     50.73%     50.73% # Request fanout histogram (Count)
system.l2_victimbus.snoopFanout::1                806     49.27%    100.00% # Request fanout histogram (Count)
system.l2_victimbus.snoopFanout::overflows            0      0.00%    100.00% # Request fanout histogram (Count)
system.l2_victimbus.snoopFanout::min_value            0                       # Request fanout histogram (Count)
system.l2_victimbus.snoopFanout::max_value            1                       # Request fanout histogram (Count)
system.l2_victimbus.snoopFanout::total           1636                       # Request fanout histogram (Count)
system.l2_victimbus.power_state.pwrStateResidencyTicks::UNDEFINED    212247000                       # Cumulative time (in ticks) in various power states (Tick)
system.l2_victimbus.reqLayer0.occupancy       1146000                       # Layer occupancy (ticks) (Tick)
system.l2_victimbus.reqLayer0.utilization          0.0                       # Layer utilization (Ratio)
system.l2_victimbus.respLayer0.occupancy      2441194                       # Layer occupancy (ticks) (Tick)
system.l2_victimbus.respLayer0.utilization          0.0                       # Layer utilization (Ratio)
system.l2_victimbus.snoop_filter.totRequests         1146                       # Total number of requests made to the snoop filter. (Count)
system.l2_victimbus.snoop_filter.hitSingleRequests          340                       # Number of requests hitting in the snoop filter with a single holder of the requested data. (Count)
system.l2_victimbus.snoop_filter.hitMultiRequests            0                       # Number of requests hitting in the snoop filter with multiple (>1) holders of the requested data. (Count)
system.l2_victimbus.snoop_filter.totSnoops          806                       # Total number of snoops made to the snoop filter. (Count)
system.l2_victimbus.snoop_filter.hitSingleSnoops          806                       # Number of snoops hitting in the snoop filter with a single holder of the requested data. (Count)
system.l2_victimbus.snoop_filter.hitMultiSnoops            0                       # Number of snoops hitting in the snoop filter with multiple (>1) holders of the requested data. (Count)
system.l2_victimcache.demandMisses::cpu.inst          571                       # number of demand (read+write) misses (Count)
system.l2_victimcache.demandMisses::cpu.data          235                       # number of demand (read+write) misses (Count)
system.l2_victimcache.demandMisses::total          806                       # number of demand (read+write) misses (Count)
system.l2_victimcache.overallMisses::cpu.inst          571                       # number of overall misses (Count)
system.l2_victimcache.overallMisses::cpu.data          235                       # number of overall misses (Count)
system.l2_victimcache.overallMisses::total          806                       # number of overall misses (Count)
system.l2_victimcache.demandMissLatency::cpu.inst     33490000                       # number of demand (read+write) miss ticks (Tick)
system.l2_victimcache.demandMissLatency::cpu.data     14432000                       # number of demand (read+write) miss ticks (Tick)
system.l2_victimcache.demandMissLatency::total     47922000                       # number of demand (read+write) miss ticks (Tick)
system.l2_victimcache.overallMissLatency::cpu.inst     33490000                       # number of overall miss ticks (Tick)
system.l2_victimcache.overallMissLatency::cpu.data     14432000                       # number of overall miss ticks (Tick)
system.l2_victimcache.overallMissLatency::total     47922000                       # number of overall miss ticks (Tick)
system.l2_victimcache.demandAccesses::cpu.inst          571                       # number of demand (read+write) accesses (Count)
system.l2_victimcache.demandAccesses::cpu.data          235                       # number of demand (read+write) accesses (Count)
system.l2_victimcache.demandAccesses::total          806                       # number of demand (read+write) accesses (Count)
system.l2_victimcache.overallAccesses::cpu.inst          571                       # number of overall (read+write) accesses (Count)
system.l2_victimcache.overallAccesses::cpu.data          235                       # number of overall (read+write) accesses (Count)
system.l2_victimcache.overallAccesses::total          806                       # number of overall (read+write) accesses (Count)
system.l2_victimcache.demandMissRate::cpu.inst            1                       # miss rate for demand accesses (Ratio)
system.l2_victimcache.demandMissRate::cpu.data            1                       # miss rate for demand accesses (Ratio)
system.l2_victimcache.demandMissRate::total            1                       # miss rate for demand accesses (Ratio)
system.l2_victimcache.overallMissRate::cpu.inst            1                       # miss rate for overall accesses (Ratio)
system.l2_victimcache.overallMissRate::cpu.data            1                       # miss rate for overall accesses (Ratio)
system.l2_victimcache.overallMissRate::total            1                       # miss rate for overall accesses (Ratio)
system.l2_victimcache.demandAvgMissLatency::cpu.inst 58651.488616                       # average overall miss latency ((Cycle/Count))
system.l2_victimcache.demandAvgMissLatency::cpu.data 61412.765957                       # average overall miss latency ((Cycle/Count))
system.l2_victimcache.demandAvgMissLatency::total 59456.575682                       # average overall miss latency ((Cycle/Count))
system.l2_victimcache.overallAvgMissLatency::cpu.inst 58651.488616                       # average overall miss latency ((Cycle/Count))
system.l2_victimcache.overallAvgMissLatency::cpu.data 61412.765957                       # average overall miss latency ((Cycle/Count))
system.l2_victimcache.overallAvgMissLatency::total 59456.575682                       # average overall miss latency ((Cycle/Count))
system.l2_victimcache.blockedCycles::no_mshrs            0                       # number of cycles access was blocked (Cycle)
system.l2_victimcache.blockedCycles::no_targets            0                       # number of cycles access was blocked (Cycle)
system.l2_victimcache.blockedCauses::no_mshrs            0                       # number of times access was blocked (Count)
system.l2_victimcache.blockedCauses::no_targets            0                       # number of times access was blocked (Count)
system.l2_victimcache.avgBlocked::no_mshrs          nan                       # average number of cycles each access was blocked ((Cycle/Count))
system.l2_victimcache.avgBlocked::no_targets          nan                       # average number of cycles each access was blocked ((Cycle/Count))
system.l2_victimcache.writebacks::writebacks          806                       # number of writebacks (Count)
system.l2_victimcache.writebacks::total           806                       # number of writebacks (Count)
system.l2_victimcache.demandMshrMisses::cpu.inst          571                       # number of demand (read+write) MSHR misses (Count)
system.l2_victimcache.demandMshrMisses::cpu.data          235                       # number of demand (read+write) MSHR misses (Count)
system.l2_victimcache.demandMshrMisses::total          806                       # number of demand (read+write) MSHR misses (Count)
system.l2_victimcache.overallMshrMisses::cpu.inst          571                       # number of overall MSHR misses (Count)
system.l2_victimcache.overallMshrMisses::cpu.data          235                       # number of overall MSHR misses (Count)
system.l2_victimcache.overallMshrMisses::total          806                       # number of overall MSHR misses (Count)
system.l2_victimcache.demandMshrMissLatency::cpu.inst     33490000                       # number of demand (read+write) MSHR miss ticks (Tick)
system.l2_victimcache.demandMshrMissLatency::cpu.data     14432000                       # number of demand (read+write) MSHR miss ticks (Tick)
system.l2_victimcache.demandMshrMissLatency::total     47922000                       # number of demand (read+write) MSHR miss ticks (Tick)
system.l2_victimcache.overallMshrMissLatency::cpu.inst     33490000                       # number of overall MSHR miss ticks (Tick)
system.l2_victimcache.overallMshrMissLatency::cpu.data     14432000                       # number of overall MSHR miss ticks (Tick)
system.l2_victimcache.overallMshrMissLatency::total     47922000                       # number of overall MSHR miss ticks (Tick)
system.l2_victimcache.demandMshrMissRate::cpu.inst            1                       # mshr miss ratio for demand accesses (Ratio)
system.l2_victimcache.demandMshrMissRate::cpu.data            1                       # mshr miss ratio for demand accesses (Ratio)
system.l2_victimcache.demandMshrMissRate::total            1                       # mshr miss ratio for demand accesses (Ratio)
system.l2_victimcache.overallMshrMissRate::cpu.inst            1                       # mshr miss ratio for overall accesses (Ratio)
system.l2_victimcache.overallMshrMissRate::cpu.data            1                       # mshr miss ratio for overall accesses (Ratio)
system.l2_victimcache.overallMshrMissRate::total            1                       # mshr miss ratio for overall accesses (Ratio)
system.l2_victimcache.demandAvgMshrMissLatency::cpu.inst 58651.488616                       # average overall mshr miss latency ((Cycle/Count))
system.l2_victimcache.demandAvgMshrMissLatency::cpu.data 61412.765957                       # average overall mshr miss latency ((Cycle/Count))
system.l2_victimcache.demandAvgMshrMissLatency::total 59456.575682                       # average overall mshr miss latency ((Cycle/Count))
system.l2_victimcache.overallAvgMshrMissLatency::cpu.inst 58651.488616                       # average overall mshr miss latency ((Cycle/Count))
system.l2_victimcache.overallAvgMshrMissLatency::cpu.data 61412.765957                       # average overall mshr miss latency ((Cycle/Count))
system.l2_victimcache.overallAvgMshrMissLatency::total 59456.575682                       # average overall mshr miss latency ((Cycle/Count))
system.l2_victimcache.replacements                  0                       # number of replacements (Count)
system.l2_victimcache.CleanEvict.mshrMisses::writebacks          316                       # number of CleanEvict MSHR misses (Count)
system.l2_victimcache.CleanEvict.mshrMisses::total          316                       # number of CleanEvict MSHR misses (Count)
system.l2_victimcache.CleanEvict.mshrMissRate::writebacks          inf                       # mshr miss rate for CleanEvict accesses (Ratio)
system.l2_victimcache.CleanEvict.mshrMissRate::total          inf                       # mshr miss rate for CleanEvict accesses (Ratio)
system.l2_victimcache.ReadCleanReq.misses::cpu.inst          571                       # number of ReadCleanReq misses (Count)
system.l2_victimcache.ReadCleanReq.misses::cpu.data          114                       # number of ReadCleanReq misses (Count)
system.l2_victimcache.ReadCleanReq.misses::total          685                       # number of ReadCleanReq misses (Count)
system.l2_victimcache.ReadCleanReq.missLatency::cpu.inst     33490000                       # number of ReadCleanReq miss ticks (Tick)
system.l2_victimcache.ReadCleanReq.missLatency::cpu.data      7262000                       # number of ReadCleanReq miss ticks (Tick)
system.l2_victimcache.ReadCleanReq.missLatency::total     40752000                       # number of ReadCleanReq miss ticks (Tick)
system.l2_victimcache.ReadCleanReq.accesses::cpu.inst          571                       # number of ReadCleanReq accesses(hits+misses) (Count)
system.l2_victimcache.ReadCleanReq.accesses::cpu.data          114                       # number of ReadCleanReq accesses(hits+misses) (Count)
system.l2_victimcache.ReadCleanReq.accesses::total          685                       # number of ReadCleanReq accesses(hits+misses) (Count)
system.l2_victimcache.ReadCleanReq.missRate::cpu.inst            1                       # miss rate for ReadCleanReq accesses (Ratio)
system.l2_victimcache.ReadCleanReq.missRate::cpu.data            1                       # miss rate for ReadCleanReq accesses (Ratio)
system.l2_victimcache.ReadCleanReq.missRate::total            1                       # miss rate for ReadCleanReq accesses (Ratio)
system.l2_victimcache.ReadCleanReq.avgMissLatency::cpu.inst 58651.488616                       # average ReadCleanReq miss latency ((Tick/Count))
system.l2_victimcache.ReadCleanReq.avgMissLatency::cpu.data 63701.754386                       # average ReadCleanReq miss latency ((Tick/Count))
system.l2_victimcache.ReadCleanReq.avgMissLatency::total 59491.970803                       # average ReadCleanReq miss latency ((Tick/Count))
system.l2_victimcache.ReadCleanReq.mshrMisses::cpu.inst          571                       # number of ReadCleanReq MSHR misses (Count)
system.l2_victimcache.ReadCleanReq.mshrMisses::cpu.data          114                       # number of ReadCleanReq MSHR misses (Count)
system.l2_victimcache.ReadCleanReq.mshrMisses::total          685                       # number of ReadCleanReq MSHR misses (Count)
system.l2_victimcache.ReadCleanReq.mshrMissLatency::cpu.inst     33490000                       # number of ReadCleanReq MSHR miss ticks (Tick)
system.l2_victimcache.ReadCleanReq.mshrMissLatency::cpu.data      7262000                       # number of ReadCleanReq MSHR miss ticks (Tick)
system.l2_victimcache.ReadCleanReq.mshrMissLatency::total     40752000                       # number of ReadCleanReq MSHR miss ticks (Tick)
system.l2_victimcache.ReadCleanReq.mshrMissRate::cpu.inst            1                       # mshr miss rate for ReadCleanReq accesses (Ratio)
system.l2_victimcache.ReadCleanReq.mshrMissRate::cpu.data            1                       # mshr miss rate for ReadCleanReq accesses (Ratio)
system.l2_victimcache.ReadCleanReq.mshrMissRate::total            1                       # mshr miss rate for ReadCleanReq accesses (Ratio)
system.l2_victimcache.ReadCleanReq.avgMshrMissLatency::cpu.inst 58651.488616                       # average ReadCleanReq mshr miss latency ((Tick/Count))
system.l2_victimcache.ReadCleanReq.avgMshrMissLatency::cpu.data 63701.754386                       # average ReadCleanReq mshr miss latency ((Tick/Count))
system.l2_victimcache.ReadCleanReq.avgMshrMissLatency::total 59491.970803                       # average ReadCleanReq mshr miss latency ((Tick/Count))
system.l2_victimcache.ReadExReq.misses::cpu.data          121                       # number of ReadExReq misses (Count)
system.l2_victimcache.ReadExReq.misses::total          121                       # number of ReadExReq misses (Count)
system.l2_victimcache.ReadExReq.missLatency::cpu.data      7170000                       # number of ReadExReq miss ticks (Tick)
system.l2_victimcache.ReadExReq.missLatency::total      7170000                       # number of ReadExReq miss ticks (Tick)
system.l2_victimcache.ReadExReq.accesses::cpu.data          121                       # number of ReadExReq accesses(hits+misses) (Count)
system.l2_victimcache.ReadExReq.accesses::total          121                       # number of ReadExReq accesses(hits+misses) (Count)
system.l2_victimcache.ReadExReq.missRate::cpu.data            1                       # miss rate for ReadExReq accesses (Ratio)
system.l2_victimcache.ReadExReq.missRate::total            1                       # miss rate for ReadExReq accesses (Ratio)
system.l2_victimcache.ReadExReq.avgMissLatency::cpu.data 59256.198347                       # average ReadExReq miss latency ((Tick/Count))
system.l2_victimcache.ReadExReq.avgMissLatency::total 59256.198347                       # average ReadExReq miss latency ((Tick/Count))
system.l2_victimcache.ReadExReq.mshrMisses::cpu.data          121                       # number of ReadExReq MSHR misses (Count)
system.l2_victimcache.ReadExReq.mshrMisses::total          121                       # number of ReadExReq MSHR misses (Count)
system.l2_victimcache.ReadExReq.mshrMissLatency::cpu.data      7170000                       # number of ReadExReq MSHR miss ticks (Tick)
system.l2_victimcache.ReadExReq.mshrMissLatency::total      7170000                       # number of ReadExReq MSHR miss ticks (Tick)
system.l2_victimcache.ReadExReq.mshrMissRate::cpu.data            1                       # mshr miss rate for ReadExReq accesses (Ratio)
system.l2_victimcache.ReadExReq.mshrMissRate::total            1                       # mshr miss rate for ReadExReq accesses (Ratio)
system.l2_victimcache.ReadExReq.avgMshrMissLatency::cpu.data 59256.198347                       # average ReadExReq mshr miss latency ((Tick/Count))
system.l2_victimcache.ReadExReq.avgMshrMissLatency::total 59256.198347                       # average ReadExReq mshr miss latency ((Tick/Count))
system.l2_victimcache.UpgradeReq.misses::cpu.data           24                       # number of UpgradeReq misses (Count)
system.l2_victimcache.UpgradeReq.misses::total           24                       # number of UpgradeReq misses (Count)
system.l2_victimcache.UpgradeReq.accesses::cpu.data           24                       # number of UpgradeReq accesses(hits+misses) (Count)
system.l2_victimcache.UpgradeReq.accesses::total           24                       # number of UpgradeReq accesses(hits+misses) (Count)
system.l2_victimcache.UpgradeReq.missRate::cpu.data            1                       # miss rate for UpgradeReq accesses (Ratio)
system.l2_victimcache.UpgradeReq.missRate::total            1                       # miss rate for UpgradeReq accesses (Ratio)
system.l2_victimcache.UpgradeReq.mshrMisses::cpu.data           24                       # number of UpgradeReq MSHR misses (Count)
system.l2_victimcache.UpgradeReq.mshrMisses::total           24                       # number of UpgradeReq MSHR misses (Count)
system.l2_victimcache.UpgradeReq.mshrMissLatency::cpu.data       239976                       # number of UpgradeReq MSHR miss ticks (Tick)
system.l2_victimcache.UpgradeReq.mshrMissLatency::total       239976                       # number of UpgradeReq MSHR miss ticks (Tick)
system.l2_victimcache.UpgradeReq.mshrMissRate::cpu.data            1                       # mshr miss rate for UpgradeReq accesses (Ratio)
system.l2_victimcache.UpgradeReq.mshrMissRate::total            1                       # mshr miss rate for UpgradeReq accesses (Ratio)
system.l2_victimcache.UpgradeReq.avgMshrMissLatency::cpu.data         9999                       # average UpgradeReq mshr miss latency ((Tick/Count))
system.l2_victimcache.UpgradeReq.avgMshrMissLatency::total         9999                       # average UpgradeReq mshr miss latency ((Tick/Count))
system.l2_victimcache.power_state.pwrStateResidencyTicks::UNDEFINED    212247000                       # Cumulative time (in ticks) in various power states (Tick)
system.l2_victimcache.tags.tagsInUse                0                       # Average ticks per tags in use ((Tick/Count))
system.l2_victimcache.tags.totalRefs                0                       # Total number of references to valid blocks. (Count)
system.l2_victimcache.tags.sampledRefs              0                       # Sample count of references to valid blocks. (Count)
system.l2_victimcache.tags.avgRefs                nan                       # Average number of references to valid blocks. ((Count/Count))
system.l2_victimcache.tags.warmupTick               0                       # The tick when the warmup percentage was hit. (Tick)
system.l2_victimcache.tags.tagAccesses          18336                       # Number of tag accesses (Count)
system.l2_victimcache.tags.dataAccesses         18336                       # Number of data accesses (Count)
system.l2_victimcache.tags.power_state.pwrStateResidencyTicks::UNDEFINED    212247000                       # Cumulative time (in ticks) in various power states (Tick)
system.l2bus.transDist::ReadResp                  685                       # Transaction distribution (Count)
system.l2bus.transDist::WritebackClean            806                       # Transaction distribution (Count)
system.l2bus.transDist::CleanEvict                317                       # Transaction distribution (Count)
system.l2bus.transDist::UpgradeReq                 24                       # Transaction distribution (Count)
system.l2bus.transDist::UpgradeResp                24                       # Transaction distribution (Count)
system.l2bus.transDist::ReadExReq                 121                       # Transaction distribution (Count)
system.l2bus.transDist::ReadExResp                121                       # Transaction distribution (Count)
system.l2bus.transDist::ReadSharedReq             686                       # Transaction distribution (Count)
system.l2bus.pktCount_system.cpu.icache.mem_side_port::system.l2cache.cpu_side_port         1460                       # Packet count per connected requestor and responder (Count)
system.l2bus.pktCount_system.cpu.dcache.mem_side_port::system.l2cache.cpu_side_port          518                       # Packet count per connected requestor and responder (Count)
system.l2bus.pktCount::total                     1978                       # Packet count per connected requestor and responder (Count)
system.l2bus.pktSize_system.cpu.icache.mem_side_port::system.l2cache.cpu_side_port        36544                       # Cumulative packet size per connected requestor and responder (Byte)
system.l2bus.pktSize_system.cpu.dcache.mem_side_port::system.l2cache.cpu_side_port        15040                       # Cumulative packet size per connected requestor and responder (Byte)
system.l2bus.pktSize::total                     51584                       # Cumulative packet size per connected requestor and responder (Byte)
system.l2bus.snoops                               806                       # Total snoops (Count)
system.l2bus.snoopTraffic                       51584                       # Total snoop traffic (Byte)
system.l2bus.snoopFanout::samples                1637                       # Request fanout histogram (Count)
system.l2bus.snoopFanout::mean               0.492364                       # Request fanout histogram (Count)
system.l2bus.snoopFanout::stdev              0.500094                       # Request fanout histogram (Count)
system.l2bus.snoopFanout::underflows                0      0.00%      0.00% # Request fanout histogram (Count)
system.l2bus.snoopFanout::0                       831     50.76%     50.76% # Request fanout histogram (Count)
system.l2bus.snoopFanout::1                       806     49.24%    100.00% # Request fanout histogram (Count)
system.l2bus.snoopFanout::2                         0      0.00%    100.00% # Request fanout histogram (Count)
system.l2bus.snoopFanout::overflows                 0      0.00%    100.00% # Request fanout histogram (Count)
system.l2bus.snoopFanout::min_value                 0                       # Request fanout histogram (Count)
system.l2bus.snoopFanout::max_value                 1                       # Request fanout histogram (Count)
system.l2bus.snoopFanout::total                  1637                       # Request fanout histogram (Count)
system.l2bus.power_state.pwrStateResidencyTicks::UNDEFINED    212247000                       # Cumulative time (in ticks) in various power states (Tick)
system.l2bus.reqLayer0.occupancy              1148000                       # Layer occupancy (ticks) (Tick)
system.l2bus.reqLayer0.utilization                0.0                       # Layer utilization (Ratio)
system.l2bus.respLayer0.occupancy             1713000                       # Layer occupancy (ticks) (Tick)
system.l2bus.respLayer0.utilization               0.0                       # Layer utilization (Ratio)
system.l2bus.respLayer1.occupancy              729000                       # Layer occupancy (ticks) (Tick)
system.l2bus.respLayer1.utilization               0.0                       # Layer utilization (Ratio)
system.l2bus.snoop_filter.totRequests            1148                       # Total number of requests made to the snoop filter. (Count)
system.l2bus.snoop_filter.hitSingleRequests          341                       # Number of requests hitting in the snoop filter with a single holder of the requested data. (Count)
system.l2bus.snoop_filter.hitMultiRequests            0                       # Number of requests hitting in the snoop filter with multiple (>1) holders of the requested data. (Count)
system.l2bus.snoop_filter.totSnoops               806                       # Total number of snoops made to the snoop filter. (Count)
system.l2bus.snoop_filter.hitSingleSnoops          806                       # Number of snoops hitting in the snoop filter with a single holder of the requested data. (Count)
system.l2bus.snoop_filter.hitMultiSnoops            0                       # Number of snoops hitting in the snoop filter with multiple (>1) holders of the requested data. (Count)
system.l2cache.demandMisses::cpu.inst             572                       # number of demand (read+write) misses (Count)
system.l2cache.demandMisses::cpu.data             235                       # number of demand (read+write) misses (Count)
system.l2cache.demandMisses::total                807                       # number of demand (read+write) misses (Count)
system.l2cache.overallMisses::cpu.inst            572                       # number of overall misses (Count)
system.l2cache.overallMisses::cpu.data            235                       # number of overall misses (Count)
system.l2cache.overallMisses::total               807                       # number of overall misses (Count)
system.l2cache.demandMissLatency::cpu.inst     57472000                       # number of demand (read+write) miss ticks (Tick)
system.l2cache.demandMissLatency::cpu.data     24302000                       # number of demand (read+write) miss ticks (Tick)
system.l2cache.demandMissLatency::total      81774000                       # number of demand (read+write) miss ticks (Tick)
system.l2cache.overallMissLatency::cpu.inst     57472000                       # number of overall miss ticks (Tick)
system.l2cache.overallMissLatency::cpu.data     24302000                       # number of overall miss ticks (Tick)
system.l2cache.overallMissLatency::total     81774000                       # number of overall miss ticks (Tick)
system.l2cache.demandAccesses::cpu.inst           572                       # number of demand (read+write) accesses (Count)
system.l2cache.demandAccesses::cpu.data           235                       # number of demand (read+write) accesses (Count)
system.l2cache.demandAccesses::total              807                       # number of demand (read+write) accesses (Count)
system.l2cache.overallAccesses::cpu.inst          572                       # number of overall (read+write) accesses (Count)
system.l2cache.overallAccesses::cpu.data          235                       # number of overall (read+write) accesses (Count)
system.l2cache.overallAccesses::total             807                       # number of overall (read+write) accesses (Count)
system.l2cache.demandMissRate::cpu.inst             1                       # miss rate for demand accesses (Ratio)
system.l2cache.demandMissRate::cpu.data             1                       # miss rate for demand accesses (Ratio)
system.l2cache.demandMissRate::total                1                       # miss rate for demand accesses (Ratio)
system.l2cache.overallMissRate::cpu.inst            1                       # miss rate for overall accesses (Ratio)
system.l2cache.overallMissRate::cpu.data            1                       # miss rate for overall accesses (Ratio)
system.l2cache.overallMissRate::total               1                       # miss rate for overall accesses (Ratio)
system.l2cache.demandAvgMissLatency::cpu.inst 100475.524476                       # average overall miss latency ((Cycle/Count))
system.l2cache.demandAvgMissLatency::cpu.data 103412.765957                       # average overall miss latency ((Cycle/Count))
system.l2cache.demandAvgMissLatency::total 101330.855019                       # average overall miss latency ((Cycle/Count))
system.l2cache.overallAvgMissLatency::cpu.inst 100475.524476                       # average overall miss latency ((Cycle/Count))
system.l2cache.overallAvgMissLatency::cpu.data 103412.765957                       # average overall miss latency ((Cycle/Count))
system.l2cache.overallAvgMissLatency::total 101330.855019                       # average overall miss latency ((Cycle/Count))
system.l2cache.blockedCycles::no_mshrs              0                       # number of cycles access was blocked (Cycle)
system.l2cache.blockedCycles::no_targets            0                       # number of cycles access was blocked (Cycle)
system.l2cache.blockedCauses::no_mshrs              0                       # number of times access was blocked (Count)
system.l2cache.blockedCauses::no_targets            0                       # number of times access was blocked (Count)
system.l2cache.avgBlocked::no_mshrs               nan                       # average number of cycles each access was blocked ((Cycle/Count))
system.l2cache.avgBlocked::no_targets             nan                       # average number of cycles each access was blocked ((Cycle/Count))
system.l2cache.writebacks::writebacks             806                       # number of writebacks (Count)
system.l2cache.writebacks::total                  806                       # number of writebacks (Count)
system.l2cache.demandMshrMisses::cpu.inst          572                       # number of demand (read+write) MSHR misses (Count)
system.l2cache.demandMshrMisses::cpu.data          235                       # number of demand (read+write) MSHR misses (Count)
system.l2cache.demandMshrMisses::total            807                       # number of demand (read+write) MSHR misses (Count)
system.l2cache.overallMshrMisses::cpu.inst          572                       # number of overall MSHR misses (Count)
system.l2cache.overallMshrMisses::cpu.data          235                       # number of overall MSHR misses (Count)
system.l2cache.overallMshrMisses::total           807                       # number of overall MSHR misses (Count)
system.l2cache.demandMshrMissLatency::cpu.inst     46052000                       # number of demand (read+write) MSHR miss ticks (Tick)
system.l2cache.demandMshrMissLatency::cpu.data     19602000                       # number of demand (read+write) MSHR miss ticks (Tick)
system.l2cache.demandMshrMissLatency::total     65654000                       # number of demand (read+write) MSHR miss ticks (Tick)
system.l2cache.overallMshrMissLatency::cpu.inst     46052000                       # number of overall MSHR miss ticks (Tick)
system.l2cache.overallMshrMissLatency::cpu.data     19602000                       # number of overall MSHR miss ticks (Tick)
system.l2cache.overallMshrMissLatency::total     65654000                       # number of overall MSHR miss ticks (Tick)
system.l2cache.demandMshrMissRate::cpu.inst            1                       # mshr miss ratio for demand accesses (Ratio)
system.l2cache.demandMshrMissRate::cpu.data            1                       # mshr miss ratio for demand accesses (Ratio)
system.l2cache.demandMshrMissRate::total            1                       # mshr miss ratio for demand accesses (Ratio)
system.l2cache.overallMshrMissRate::cpu.inst            1                       # mshr miss ratio for overall accesses (Ratio)
system.l2cache.overallMshrMissRate::cpu.data            1                       # mshr miss ratio for overall accesses (Ratio)
system.l2cache.overallMshrMissRate::total            1                       # mshr miss ratio for overall accesses (Ratio)
system.l2cache.demandAvgMshrMissLatency::cpu.inst 80510.489510                       # average overall mshr miss latency ((Cycle/Count))
system.l2cache.demandAvgMshrMissLatency::cpu.data 83412.765957                       # average overall mshr miss latency ((Cycle/Count))
system.l2cache.demandAvgMshrMissLatency::total 81355.638166                       # average overall mshr miss latency ((Cycle/Count))
system.l2cache.overallAvgMshrMissLatency::cpu.inst 80510.489510                       # average overall mshr miss latency ((Cycle/Count))
system.l2cache.overallAvgMshrMissLatency::cpu.data 83412.765957                       # average overall mshr miss latency ((Cycle/Count))
system.l2cache.overallAvgMshrMissLatency::total 81355.638166                       # average overall mshr miss latency ((Cycle/Count))
system.l2cache.replacements                         0                       # number of replacements (Count)
system.l2cache.CleanEvict.mshrMisses::writebacks          317                       # number of CleanEvict MSHR misses (Count)
system.l2cache.CleanEvict.mshrMisses::total          317                       # number of CleanEvict MSHR misses (Count)
system.l2cache.CleanEvict.mshrMissRate::writebacks          inf                       # mshr miss rate for CleanEvict accesses (Ratio)
system.l2cache.CleanEvict.mshrMissRate::total          inf                       # mshr miss rate for CleanEvict accesses (Ratio)
system.l2cache.ReadExReq.misses::cpu.data          121                       # number of ReadExReq misses (Count)
system.l2cache.ReadExReq.misses::total            121                       # number of ReadExReq misses (Count)
system.l2cache.ReadExReq.missLatency::cpu.data     12252000                       # number of ReadExReq miss ticks (Tick)
system.l2cache.ReadExReq.missLatency::total     12252000                       # number of ReadExReq miss ticks (Tick)
system.l2cache.ReadExReq.accesses::cpu.data          121                       # number of ReadExReq accesses(hits+misses) (Count)
system.l2cache.ReadExReq.accesses::total          121                       # number of ReadExReq accesses(hits+misses) (Count)
system.l2cache.ReadExReq.missRate::cpu.data            1                       # miss rate for ReadExReq accesses (Ratio)
system.l2cache.ReadExReq.missRate::total            1                       # miss rate for ReadExReq accesses (Ratio)
system.l2cache.ReadExReq.avgMissLatency::cpu.data 101256.198347                       # average ReadExReq miss latency ((Tick/Count))
system.l2cache.ReadExReq.avgMissLatency::total 101256.198347                       # average ReadExReq miss latency ((Tick/Count))
system.l2cache.ReadExReq.mshrMisses::cpu.data          121                       # number of ReadExReq MSHR misses (Count)
system.l2cache.ReadExReq.mshrMisses::total          121                       # number of ReadExReq MSHR misses (Count)
system.l2cache.ReadExReq.mshrMissLatency::cpu.data      9832000                       # number of ReadExReq MSHR miss ticks (Tick)
system.l2cache.ReadExReq.mshrMissLatency::total      9832000                       # number of ReadExReq MSHR miss ticks (Tick)
system.l2cache.ReadExReq.mshrMissRate::cpu.data            1                       # mshr miss rate for ReadExReq accesses (Ratio)
system.l2cache.ReadExReq.mshrMissRate::total            1                       # mshr miss rate for ReadExReq accesses (Ratio)
system.l2cache.ReadExReq.avgMshrMissLatency::cpu.data 81256.198347                       # average ReadExReq mshr miss latency ((Tick/Count))
system.l2cache.ReadExReq.avgMshrMissLatency::total 81256.198347                       # average ReadExReq mshr miss latency ((Tick/Count))
system.l2cache.ReadSharedReq.misses::cpu.inst          572                       # number of ReadSharedReq misses (Count)
system.l2cache.ReadSharedReq.misses::cpu.data          114                       # number of ReadSharedReq misses (Count)
system.l2cache.ReadSharedReq.misses::total          686                       # number of ReadSharedReq misses (Count)
system.l2cache.ReadSharedReq.missLatency::cpu.inst     57472000                       # number of ReadSharedReq miss ticks (Tick)
system.l2cache.ReadSharedReq.missLatency::cpu.data     12050000                       # number of ReadSharedReq miss ticks (Tick)
system.l2cache.ReadSharedReq.missLatency::total     69522000                       # number of ReadSharedReq miss ticks (Tick)
system.l2cache.ReadSharedReq.accesses::cpu.inst          572                       # number of ReadSharedReq accesses(hits+misses) (Count)
system.l2cache.ReadSharedReq.accesses::cpu.data          114                       # number of ReadSharedReq accesses(hits+misses) (Count)
system.l2cache.ReadSharedReq.accesses::total          686                       # number of ReadSharedReq accesses(hits+misses) (Count)
system.l2cache.ReadSharedReq.missRate::cpu.inst            1                       # miss rate for ReadSharedReq accesses (Ratio)
system.l2cache.ReadSharedReq.missRate::cpu.data            1                       # miss rate for ReadSharedReq accesses (Ratio)
system.l2cache.ReadSharedReq.missRate::total            1                       # miss rate for ReadSharedReq accesses (Ratio)
system.l2cache.ReadSharedReq.avgMissLatency::cpu.inst 100475.524476                       # average ReadSharedReq miss latency ((Tick/Count))
system.l2cache.ReadSharedReq.avgMissLatency::cpu.data 105701.754386                       # average ReadSharedReq miss latency ((Tick/Count))
system.l2cache.ReadSharedReq.avgMissLatency::total 101344.023324                       # average ReadSharedReq miss latency ((Tick/Count))
system.l2cache.ReadSharedReq.mshrMisses::cpu.inst          572                       # number of ReadSharedReq MSHR misses (Count)
system.l2cache.ReadSharedReq.mshrMisses::cpu.data          114                       # number of ReadSharedReq MSHR misses (Count)
system.l2cache.ReadSharedReq.mshrMisses::total          686                       # number of ReadSharedReq MSHR misses (Count)
system.l2cache.ReadSharedReq.mshrMissLatency::cpu.inst     46052000                       # number of ReadSharedReq MSHR miss ticks (Tick)
system.l2cache.ReadSharedReq.mshrMissLatency::cpu.data      9770000                       # number of ReadSharedReq MSHR miss ticks (Tick)
system.l2cache.ReadSharedReq.mshrMissLatency::total     55822000                       # number of ReadSharedReq MSHR miss ticks (Tick)
system.l2cache.ReadSharedReq.mshrMissRate::cpu.inst            1                       # mshr miss rate for ReadSharedReq accesses (Ratio)
system.l2cache.ReadSharedReq.mshrMissRate::cpu.data            1                       # mshr miss rate for ReadSharedReq accesses (Ratio)
system.l2cache.ReadSharedReq.mshrMissRate::total            1                       # mshr miss rate for ReadSharedReq accesses (Ratio)
system.l2cache.ReadSharedReq.avgMshrMissLatency::cpu.inst 80510.489510                       # average ReadSharedReq mshr miss latency ((Tick/Count))
system.l2cache.ReadSharedReq.avgMshrMissLatency::cpu.data 85701.754386                       # average ReadSharedReq mshr miss latency ((Tick/Count))
system.l2cache.ReadSharedReq.avgMshrMissLatency::total 81373.177843                       # average ReadSharedReq mshr miss latency ((Tick/Count))
system.l2cache.UpgradeReq.misses::cpu.data           24                       # number of UpgradeReq misses (Count)
system.l2cache.UpgradeReq.misses::total            24                       # number of UpgradeReq misses (Count)
[...]
system.mem_ctrl.dram.bytesRead::total           51584                       # Number of bytes read from this memory (Byte)
system.mem_ctrl.dram.bytesInstRead::cpu.inst        36544                       # Number of instructions bytes read from this memory (Byte)
system.mem_ctrl.dram.bytesInstRead::total        36544                       # Number of instructions bytes read from this memory (Byte)
system.mem_ctrl.dram.numReads::cpu.inst           571                       # Number of read requests responded to by this memory (Count)
system.mem_ctrl.dram.numReads::cpu.data           235                       # Number of read requests responded to by this memory (Count)
system.mem_ctrl.dram.numReads::total              806                       # Number of read requests responded to by this memory (Count)
system.mem_ctrl.dram.bwRead::cpu.inst       172176756                       # Total read bandwidth from this memory ((Byte/Second))
system.mem_ctrl.dram.bwRead::cpu.data        70860837                       # Total read bandwidth from this memory ((Byte/Second))
system.mem_ctrl.dram.bwRead::total          243037593                       # Total read bandwidth from this memory ((Byte/Second))
system.mem_ctrl.dram.bwInstRead::cpu.inst    172176756                       # Instruction read bandwidth from this memory ((Byte/Second))
system.mem_ctrl.dram.bwInstRead::total      172176756                       # Instruction read bandwidth from this memory ((Byte/Second))
system.mem_ctrl.dram.bwTotal::cpu.inst      172176756                       # Total bandwidth to/from this memory ((Byte/Second))
system.mem_ctrl.dram.bwTotal::cpu.data       70860837                       # Total bandwidth to/from this memory ((Byte/Second))
system.mem_ctrl.dram.bwTotal::total         243037593                       # Total bandwidth to/from this memory ((Byte/Second))
system.mem_ctrl.dram.readBursts                   806                       # Number of DRAM read bursts (Count)
system.mem_ctrl.dram.writeBursts                    0                       # Number of DRAM write bursts (Count)
system.mem_ctrl.dram.perBankRdBursts::0            33                       # Per bank write bursts (Count)
system.mem_ctrl.dram.perBankRdBursts::1            93                       # Per bank write bursts (Count)
system.mem_ctrl.dram.perBankRdBursts::2           114                       # Per bank write bursts (Count)
system.mem_ctrl.dram.perBankRdBursts::3           110                       # Per bank write bursts (Count)
system.mem_ctrl.dram.perBankRdBursts::4            98                       # Per bank write bursts (Count)
system.mem_ctrl.dram.perBankRdBursts::5            37                       # Per bank write bursts (Count)
system.mem_ctrl.dram.perBankRdBursts::6            42                       # Per bank write bursts (Count)
system.mem_ctrl.dram.perBankRdBursts::7            11                       # Per bank write bursts (Count)
system.mem_ctrl.dram.perBankRdBursts::8            15                       # Per bank write bursts (Count)
system.mem_ctrl.dram.perBankRdBursts::9            86                       # Per bank write bursts (Count)
system.mem_ctrl.dram.perBankRdBursts::10           32                       # Per bank write bursts (Count)
system.mem_ctrl.dram.perBankRdBursts::11           30                       # Per bank write bursts (Count)
system.mem_ctrl.dram.perBankRdBursts::12           15                       # Per bank write bursts (Count)
system.mem_ctrl.dram.perBankRdBursts::13           12                       # Per bank write bursts (Count)
system.mem_ctrl.dram.perBankRdBursts::14           23                       # Per bank write bursts (Count)
system.mem_ctrl.dram.perBankRdBursts::15           55                       # Per bank write bursts (Count)
system.mem_ctrl.dram.perBankWrBursts::0             0                       # Per bank write bursts (Count)
system.mem_ctrl.dram.perBankWrBursts::1             0                       # Per bank write bursts (Count)
system.mem_ctrl.dram.perBankWrBursts::2             0                       # Per bank write bursts (Count)
system.mem_ctrl.dram.perBankWrBursts::3             0                       # Per bank write bursts (Count)
system.mem_ctrl.dram.perBankWrBursts::4             0                       # Per bank write bursts (Count)
system.mem_ctrl.dram.perBankWrBursts::5             0                       # Per bank write bursts (Count)
system.mem_ctrl.dram.perBankWrBursts::6             0                       # Per bank write bursts (Count)
system.mem_ctrl.dram.perBankWrBursts::7             0                       # Per bank write bursts (Count)
system.mem_ctrl.dram.perBankWrBursts::8             0                       # Per bank write bursts (Count)
system.mem_ctrl.dram.perBankWrBursts::9             0                       # Per bank write bursts (Count)
system.mem_ctrl.dram.perBankWrBursts::10            0                       # Per bank write bursts (Count)
system.mem_ctrl.dram.perBankWrBursts::11            0                       # Per bank write bursts (Count)
system.mem_ctrl.dram.perBankWrBursts::12            0                       # Per bank write bursts (Count)
system.mem_ctrl.dram.perBankWrBursts::13            0                       # Per bank write bursts (Count)
system.mem_ctrl.dram.perBankWrBursts::14            0                       # Per bank write bursts (Count)
system.mem_ctrl.dram.perBankWrBursts::15            0                       # Per bank write bursts (Count)
system.mem_ctrl.dram.totQLat                  7544989                       # Total ticks spent queuing (Tick)
system.mem_ctrl.dram.totBusLat                4030000                       # Total ticks spent in databus transfers (Tick)
system.mem_ctrl.dram.totMemAccLat            22657489                       # Total ticks spent from burst creation until serviced by the DRAM (Tick)
system.mem_ctrl.dram.avgQLat                  9361.03                       # Average queueing delay per DRAM burst ((Tick/Count))
system.mem_ctrl.dram.avgBusLat                5000.00                       # Average bus latency per DRAM burst ((Tick/Count))
system.mem_ctrl.dram.avgMemAccLat            28111.03                       # Average memory access latency per DRAM burst ((Tick/Count))
system.mem_ctrl.dram.readRowHits                  599                       # Number of row buffer hits during reads (Count)
system.mem_ctrl.dram.writeRowHits                   0                       # Number of row buffer hits during writes (Count)
system.mem_ctrl.dram.readRowHitRate             74.32                       # Row buffer hit rate for reads (Ratio)
system.mem_ctrl.dram.writeRowHitRate              nan                       # Row buffer hit rate for writes (Ratio)
system.mem_ctrl.dram.bytesPerActivate::samples          204                       # Bytes accessed per row activation (Byte)
system.mem_ctrl.dram.bytesPerActivate::mean   248.156863                       # Bytes accessed per row activation (Byte)
system.mem_ctrl.dram.bytesPerActivate::gmean   162.112870                       # Bytes accessed per row activation (Byte)
system.mem_ctrl.dram.bytesPerActivate::stdev   258.663436                       # Bytes accessed per row activation (Byte)
system.mem_ctrl.dram.bytesPerActivate::0-127           74     36.27%     36.27% # Bytes accessed per row activation (Byte)
system.mem_ctrl.dram.bytesPerActivate::128-255           62     30.39%     66.67% # Bytes accessed per row activation (Byte)
system.mem_ctrl.dram.bytesPerActivate::256-383           23     11.27%     77.94% # Bytes accessed per row activation (Byte)
system.mem_ctrl.dram.bytesPerActivate::384-511           16      7.84%     85.78% # Bytes accessed per row activation (Byte)
system.mem_ctrl.dram.bytesPerActivate::512-639            6      2.94%     88.73% # Bytes accessed per row activation (Byte)
system.mem_ctrl.dram.bytesPerActivate::640-767            7      3.43%     92.16% # Bytes accessed per row activation (Byte)
system.mem_ctrl.dram.bytesPerActivate::768-895            3      1.47%     93.63% # Bytes accessed per row activation (Byte)
system.mem_ctrl.dram.bytesPerActivate::896-1023            3      1.47%     95.10% # Bytes accessed per row activation (Byte)
system.mem_ctrl.dram.bytesPerActivate::1024-1151           10      4.90%    100.00% # Bytes accessed per row activation (Byte)
system.mem_ctrl.dram.bytesPerActivate::total          204                       # Bytes accessed per row activation (Byte)
system.mem_ctrl.dram.bytesRead                  51584                       # Total number of bytes read from DRAM (Byte)
system.mem_ctrl.dram.bytesWritten                   0                       # Total number of bytes written to DRAM (Byte)
system.mem_ctrl.dram.avgRdBW               243.037593                       # Average DRAM read bandwidth in MiBytes/s ((Byte/Second))
system.mem_ctrl.dram.avgWrBW                        0                       # Average DRAM write bandwidth in MiBytes/s ((Byte/Second))
system.mem_ctrl.dram.peakBW                  12800.00                       # Theoretical peak bandwidth in MiByte/s ((Byte/Second))
system.mem_ctrl.dram.busUtil                     1.90                       # Data bus utilization in percentage (Ratio)
system.mem_ctrl.dram.busUtilRead                 1.90                       # Data bus utilization in percentage for reads (Ratio)
system.mem_ctrl.dram.busUtilWrite                0.00                       # Data bus utilization in percentage for writes (Ratio)
system.mem_ctrl.dram.pageHitRate                74.32                       # Row buffer hit rate, read and write combined (Ratio)
system.mem_ctrl.dram.power_state.pwrStateResidencyTicks::UNDEFINED    212247000                       # Cumulative time (in ticks) in various power states (Tick)
system.mem_ctrl.dram.rank0.actEnergy          1120980                       # Energy for activate commands per rank (pJ) (Joule)
system.mem_ctrl.dram.rank0.preEnergy           588225                       # Energy for precharge commands per rank (pJ) (Joule)
system.mem_ctrl.dram.rank0.readEnergy         3841320                       # Energy for read commands per rank (pJ) (Joule)
system.mem_ctrl.dram.rank0.writeEnergy              0                       # Energy for write commands per rank (pJ) (Joule)
system.mem_ctrl.dram.rank0.refreshEnergy 16595280.000000                       # Energy for refresh commands per rank (pJ) (Joule)
system.mem_ctrl.dram.rank0.actBackEnergy     45460350                       # Energy for active background per rank (pJ) (Joule)
system.mem_ctrl.dram.rank0.preBackEnergy     43220640                       # Energy for precharge background per rank (pJ) (Joule)
system.mem_ctrl.dram.rank0.actPowerDownEnergy            0                       # Energy for active power-down per rank (pJ) (Joule)
system.mem_ctrl.dram.rank0.prePowerDownEnergy            0                       # Energy for precharge power-down per rank (pJ) (Joule)
system.mem_ctrl.dram.rank0.selfRefreshEnergy            0                       # Energy for self refresh per rank (pJ) (Joule)
system.mem_ctrl.dram.rank0.totalEnergy      110826795                       # Total energy per rank (pJ) (Joule)
system.mem_ctrl.dram.rank0.averagePower    522.159536                       # Core power per rank (mW) (Watt)
system.mem_ctrl.dram.rank0.totalIdleTime            0                       # Total Idle time Per DRAM Rank (Tick)
system.mem_ctrl.dram.rank0.pwrStateTime::IDLE    111874756                       # Time in different power states (Tick)
system.mem_ctrl.dram.rank0.pwrStateTime::REF      7020000                       # Time in different power states (Tick)
system.mem_ctrl.dram.rank0.pwrStateTime::SREF            0                       # Time in different power states (Tick)
system.mem_ctrl.dram.rank0.pwrStateTime::PRE_PDN            0                       # Time in different power states (Tick)
system.mem_ctrl.dram.rank0.pwrStateTime::ACT     93352244                       # Time in different power states (Tick)
system.mem_ctrl.dram.rank0.pwrStateTime::ACT_PDN            0                       # Time in different power states (Tick)
system.mem_ctrl.dram.rank1.actEnergy           357000                       # Energy for activate commands per rank (pJ) (Joule)
system.mem_ctrl.dram.rank1.preEnergy           185955                       # Energy for precharge commands per rank (pJ) (Joule)
system.mem_ctrl.dram.rank1.readEnergy         1913520                       # Energy for read commands per rank (pJ) (Joule)
system.mem_ctrl.dram.rank1.writeEnergy              0                       # Energy for write commands per rank (pJ) (Joule)
system.mem_ctrl.dram.rank1.refreshEnergy 16595280.000000                       # Energy for refresh commands per rank (pJ) (Joule)
system.mem_ctrl.dram.rank1.actBackEnergy     37916400                       # Energy for active background per rank (pJ) (Joule)
system.mem_ctrl.dram.rank1.preBackEnergy     49573440                       # Energy for precharge background per rank (pJ) (Joule)
system.mem_ctrl.dram.rank1.actPowerDownEnergy            0                       # Energy for active power-down per rank (pJ) (Joule)
system.mem_ctrl.dram.rank1.prePowerDownEnergy            0                       # Energy for precharge power-down per rank (pJ) (Joule)
system.mem_ctrl.dram.rank1.selfRefreshEnergy            0                       # Energy for self refresh per rank (pJ) (Joule)
system.mem_ctrl.dram.rank1.totalEnergy      106541595                       # Total energy per rank (pJ) (Joule)
system.mem_ctrl.dram.rank1.averagePower    501.969851                       # Core power per rank (mW) (Watt)
system.mem_ctrl.dram.rank1.totalIdleTime            0                       # Total Idle time Per DRAM Rank (Tick)
system.mem_ctrl.dram.rank1.pwrStateTime::IDLE    128555259                       # Time in different power states (Tick)
system.mem_ctrl.dram.rank1.pwrStateTime::REF      7020000                       # Time in different power states (Tick)
system.mem_ctrl.dram.rank1.pwrStateTime::SREF            0                       # Time in different power states (Tick)
system.mem_ctrl.dram.rank1.pwrStateTime::PRE_PDN            0                       # Time in different power states (Tick)
system.mem_ctrl.dram.rank1.pwrStateTime::ACT     76671741                       # Time in different power states (Tick)
system.mem_ctrl.dram.rank1.pwrStateTime::ACT_PDN            0                       # Time in different power states (Tick)
system.mem_ctrl.power_state.pwrStateResidencyTicks::UNDEFINED    212247000                       # Cumulative time (in ticks) in various power states (Tick)
system.membus.transDist::ReadResp                 685                       # Transaction distribution (Count)
system.membus.transDist::CleanEvict               316                       # Transaction distribution (Count)
system.membus.transDist::UpgradeReq                24                       # Transaction distribution (Count)
system.membus.transDist::ReadExReq                121                       # Transaction distribution (Count)
system.membus.transDist::ReadExResp               121                       # Transaction distribution (Count)
system.membus.transDist::ReadCleanReq             685                       # Transaction distribution (Count)
system.membus.pktCount_system.l2_victimcache.mem_side_port::system.mem_ctrl.port         1952                       # Packet count per connected requestor and responder (Count)
system.membus.pktCount_system.l2_victimcache.mem_side_port::total         1952                       # Packet count per connected requestor and responder (Count)
system.membus.pktCount::total                    1952                       # Packet count per connected requestor and responder (Count)
system.membus.pktSize_system.l2_victimcache.mem_side_port::system.mem_ctrl.port        51584                       # Cumulative packet size per connected requestor and responder (Byte)
system.membus.pktSize_system.l2_victimcache.mem_side_port::total        51584                       # Cumulative packet size per connected requestor and responder (Byte)
system.membus.pktSize::total                    51584                       # Cumulative packet size per connected requestor and responder (Byte)
system.membus.snoops                                0                       # Total snoops (Count)
system.membus.snoopTraffic                          0                       # Total snoop traffic (Byte)
system.membus.snoopFanout::samples                830                       # Request fanout histogram (Count)
system.membus.snoopFanout::mean                     0                       # Request fanout histogram (Count)
system.membus.snoopFanout::stdev                    0                       # Request fanout histogram (Count)
system.membus.snoopFanout::underflows               0      0.00%      0.00% # Request fanout histogram (Count)
system.membus.snoopFanout::0                      830    100.00%    100.00% # Request fanout histogram (Count)
system.membus.snoopFanout::1                        0      0.00%    100.00% # Request fanout histogram (Count)
system.membus.snoopFanout::overflows                0      0.00%    100.00% # Request fanout histogram (Count)
system.membus.snoopFanout::min_value                0                       # Request fanout histogram (Count)
system.membus.snoopFanout::max_value                0                       # Request fanout histogram (Count)
system.membus.snoopFanout::total                  830                       # Request fanout histogram (Count)
system.membus.power_state.pwrStateResidencyTicks::UNDEFINED    212247000                       # Cumulative time (in ticks) in various power states (Tick)
system.membus.reqLayer2.occupancy             2284860                       # Layer occupancy (ticks) (Tick)
system.membus.reqLayer2.utilization               0.0                       # Layer utilization (Ratio)
system.membus.respLayer0.occupancy            4300762                       # Layer occupancy (ticks) (Tick)
system.membus.respLayer0.utilization              0.0                       # Layer utilization (Ratio)
system.membus.snoop_filter.totRequests           1146                       # Total number of requests made to the snoop filter. (Count)
system.membus.snoop_filter.hitSingleRequests          340                       # Number of requests hitting in the snoop filter with a single holder of the requested data. (Count)
system.membus.snoop_filter.hitMultiRequests            0                       # Number of requests hitting in the snoop filter with multiple (>1) holders of the requested data. (Count)
system.membus.snoop_filter.totSnoops                0                       # Total number of snoops made to the snoop filter. (Count)
system.membus.snoop_filter.hitSingleSnoops            0                       # Number of snoops hitting in the snoop filter with a single holder of the requested data. (Count)
system.membus.snoop_filter.hitMultiSnoops            0                       # Number of snoops hitting in the snoop filter with multiple (>1) holders of the requested data. (Count)
system.workload.inst.arm                            0                       # number of arm instructions executed (Count)
system.workload.inst.quiesce                        0                       # number of quiesce instructions executed (Count)
system.cpu.idleCycles                           64783                       # Total number of cycles that the object has spent stopped (Unspecified)
system.cpu.tickCycles                          147464                       # Number of cycles that the object actually ticked (Unspecified)

---------- End Simulation Statistics   ----------
