
---------- Begin Simulation Statistics ----------
simSeconds                                   0.000279                       # Number of seconds simulated (Second)
simTicks                                    279110000                       # Number of ticks simulated (Tick)
finalTick                                   279110000                       # Number of ticks from beginning of simulation (restored from checkpoints and never reset) (Tick)
simFreq                                  1000000000000                       # The number of ticks per simulated second ((Tick/Second))
hostSeconds                                      0.64                       # Real time elapsed on the host (Second)
hostTickRate                                433904153                       # The number of ticks simulated per host second (ticks/s) ((Tick/Second))
hostMemory                                     645988                       # Number of bytes of host memory used (Byte)
simInsts                                        94409                       # Number of instructions simulated (Count)
simOps                                         147357                       # Number of ops (including micro ops) simulated (Count)
hostInstRate                                   146738                       # Simulator instruction rate (inst/s) ((Count/Second))
hostOpRate                                     229030                       # Simulator op (including micro ops) rate (op/s) ((Count/Second))
system.clk_domain.clock                          1000                       # Clock period in ticks (Tick)
system.clk_domain.voltage_domain.voltage            1                       # Voltage in Volts (Volt)
system.cpu.numCycles                           279111                       # Number of cpu cycles simulated (Cycle)
system.cpu.numWorkItemsStarted                      0                       # Number of work items this cpu started (Count)
system.cpu.numWorkItemsCompleted                    0                       # Number of work items this cpu completed (Count)
system.cpu.instsAdded                          159799                       # Number of instructions added to the IQ (excludes non-spec) (Count)
system.cpu.nonSpecInstsAdded                        1                       # Number of non-speculative instructions added to the IQ (Count)
system.cpu.instsIssued                         156879                       # Number of instructions issued (Count)
system.cpu.squashedInstsIssued                     41                       # Number of squashed instructions issued (Count)
system.cpu.squashedInstsExamined                12429                       # Number of squashed instructions iterated over during squash; mainly for profiling (Count)
system.cpu.squashedOperandsExamined             14310                       # Number of squashed operands that are examined and possibly removed from graph (Count)
system.cpu.squashedNonSpecRemoved                   1                       # Number of squashed non-spec instructions that were removed (Count)
system.cpu.numIssuedDist::samples              258447                       # Number of insts issued each cycle (Count)
system.cpu.numIssuedDist::mean               0.607006                       # Number of insts issued each cycle (Count)
system.cpu.numIssuedDist::stdev              1.188238                       # Number of insts issued each cycle (Count)
system.cpu.numIssuedDist::underflows                0      0.00%      0.00% # Number of insts issued each cycle (Count)
system.cpu.numIssuedDist::0                    177159     68.55%     68.55% # Number of insts issued each cycle (Count)
system.cpu.numIssuedDist::1                     45316     17.53%     86.08% # Number of insts issued each cycle (Count)
system.cpu.numIssuedDist::2                     15860      6.14%     92.22% # Number of insts issued each cycle (Count)
system.cpu.numIssuedDist::3                     11267      4.36%     96.58% # Number of insts issued each cycle (Count)
system.cpu.numIssuedDist::4                      3079      1.19%     97.77% # Number of insts issued each cycle (Count)
system.cpu.numIssuedDist::5                      1943      0.75%     98.52% # Number of insts issued each cycle (Count)
system.cpu.numIssuedDist::6                      3027      1.17%     99.69% # Number of insts issued each cycle (Count)
system.cpu.numIssuedDist::7                       519      0.20%     99.89% # Number of insts issued each cycle (Count)
system.cpu.numIssuedDist::8                       277      0.11%    100.00% # Number of insts issued each cycle (Count)
system.cpu.numIssuedDist::overflows                 0      0.00%    100.00% # Number of insts issued each cycle (Count)
system.cpu.numIssuedDist::min_value                 0                       # Number of insts issued each cycle (Count)
system.cpu.numIssuedDist::max_value                 8                       # Number of insts issued each cycle (Count)
system.cpu.numIssuedDist::total                258447                       # Number of insts issued each cycle (Count)
system.cpu.statFuBusy::No_OpClass                   0      0.00%      0.00% # attempts to use FU when none available (Count)
system.cpu.statFuBusy::IntAlu                     248     77.50%     77.50% # attempts to use FU when none available (Count)
system.cpu.statFuBusy::IntMult                      0      0.00%     77.50% # attempts to use FU when none available (Count)
system.cpu.statFuBusy::IntDiv                       0      0.00%     77.50% # attempts to use FU when none available (Count)
system.cpu.statFuBusy::FloatAdd                     0      0.00%     77.50% # attempts to use FU when none available (Count)
system.cpu.statFuBusy::FloatCmp                     0      0.00%     77.50% # attempts to use FU when none available (Count)
system.cpu.statFuBusy::FloatCvt                     0      0.00%     77.50% # attempts to use FU when none available (Count)
system.cpu.statFuBusy::FloatMult                    0      0.00%     77.50% # attempts to use FU when none available (Count)
system.cpu.statFuBusy::FloatMultAcc                 0      0.00%     77.50% # attempts to use FU when none available (Count)
system.cpu.statFuBusy::FloatDiv                     0      0.00%     77.50% # attempts to use FU when none available (Count)
system.cpu.statFuBusy::FloatMisc                    0      0.00%     77.50% # attempts to use FU when none available (Count)
system.cpu.statFuBusy::FloatSqrt                    0      0.00%     77.50% # attempts to use FU when none available (Count)
system.cpu.statFuBusy::SimdAdd                      0      0.00%     77.50% # attempts to use FU when none available (Count)
system.cpu.statFuBusy::SimdAddAcc                   0      0.00%     77.50% # attempts to use FU when none available (Count)
system.cpu.statFuBusy::SimdAlu                     11      3.44%     80.94% # attempts to use FU when none available (Count)
system.cpu.statFuBusy::SimdCmp                      0      0.00%     80.94% # attempts to use FU when none available (Count)
system.cpu.statFuBusy::SimdCvt                      1      0.31%     81.25% # attempts to use FU when none available (Count)
system.cpu.statFuBusy::SimdMisc                     2      0.62%     81.88% # attempts to use FU when none available (Count)
system.cpu.statFuBusy::SimdMult                     0      0.00%     81.88% # attempts to use FU when none available (Count)
system.cpu.statFuBusy::SimdMultAcc                  0      0.00%     81.88% # attempts to use FU when none available (Count)
system.cpu.statFuBusy::SimdShift                    0      0.00%     81.88% # attempts to use FU when none available (Count)
system.cpu.statFuBusy::SimdShiftAcc                 0      0.00%     81.88% # attempts to use FU when none available (Count)
system.cpu.statFuBusy::SimdDiv                      0      0.00%     81.88% # attempts to use FU when none available (Count)
system.cpu.statFuBusy::SimdSqrt                     0      0.00%     81.88% # attempts to use FU when none available (Count)
system.cpu.statFuBusy::SimdFloatAdd                 0      0.00%     81.88% # attempts to use FU when none available (Count)
system.cpu.statFuBusy::SimdFloatAlu                 0      0.00%     81.88% # attempts to use FU when none available (Count)
system.cpu.statFuBusy::SimdFloatCmp                 0      0.00%     81.88% # attempts to use FU when none available (Count)
system.cpu.statFuBusy::SimdFloatCvt                 0      0.00%     81.88% # attempts to use FU when none available (Count)
system.cpu.statFuBusy::SimdFloatDiv                 0      0.00%     81.88% # attempts to use FU when none available (Count)
system.cpu.statFuBusy::SimdFloatMisc                0      0.00%     81.88% # attempts to use FU when none available (Count)
system.cpu.statFuBusy::SimdFloatMult                0      0.00%     81.88% # attempts to use FU when none available (Count)
system.cpu.statFuBusy::SimdFloatMultAcc             0      0.00%     81.88% # attempts to use FU when none available (Count)
system.cpu.statFuBusy::SimdFloatSqrt                0      0.00%     81.88% # attempts to use FU when none available (Count)
system.cpu.statFuBusy::SimdReduceAdd                0      0.00%     81.88% # attempts to use FU when none available (Count)
system.cpu.statFuBusy::SimdReduceAlu                0      0.00%     81.88% # attempts to use FU when none available (Count)
system.cpu.statFuBusy::SimdReduceCmp                0      0.00%     81.88% # attempts to use FU when none available (Count)
system.cpu.statFuBusy::SimdFloatReduceAdd            0      0.00%     81.88% # attempts to use FU when none available (Count)
system.cpu.statFuBusy::SimdFloatReduceCmp            0      0.00%     81.88% # attempts to use FU when none available (Count)
system.cpu.statFuBusy::SimdAes                      0      0.00%     81.88% # attempts to use FU when none available (Count)
system.cpu.statFuBusy::SimdAesMix                   0      0.00%     81.88% # attempts to use FU when none available (Count)
system.cpu.statFuBusy::SimdSha1Hash                 0      0.00%     81.88% # attempts to use FU when none available (Count)
system.cpu.statFuBusy::SimdSha1Hash2                0      0.00%     81.88% # attempts to use FU when none available (Count)
system.cpu.statFuBusy::SimdSha256Hash               0      0.00%     81.88% # attempts to use FU when none available (Count)
system.cpu.statFuBusy::SimdSha256Hash2              0      0.00%     81.88% # attempts to use FU when none available (Count)
system.cpu.statFuBusy::SimdShaSigma2                0      0.00%     81.88% # attempts to use FU when none available (Count)
system.cpu.statFuBusy::SimdShaSigma3                0      0.00%     81.88% # attempts to use FU when none available (Count)
system.cpu.statFuBusy::SimdPredAlu                  0      0.00%     81.88% # attempts to use FU when none available (Count)
system.cpu.statFuBusy::MemRead                     26      8.12%     90.00% # attempts to use FU when none available (Count)
system.cpu.statFuBusy::MemWrite                    19      5.94%     95.94% # attempts to use FU when none available (Count)
system.cpu.statFuBusy::FloatMemRead                 6      1.88%     97.81% # attempts to use FU when none available (Count)
system.cpu.statFuBusy::FloatMemWrite                7      2.19%    100.00% # attempts to use FU when none available (Count)
system.cpu.statFuBusy::IprAccess                    0      0.00%    100.00% # attempts to use FU when none available (Count)
system.cpu.statFuBusy::InstPrefetch                 0      0.00%    100.00% # attempts to use FU when none available (Count)
system.cpu.statIssuedInstType_0::No_OpClass          633      0.40%      0.40% # Number of instructions issued per FU type, per thread (Count)
system.cpu.statIssuedInstType_0::IntAlu        142337     90.73%     91.13% # Number of instructions issued per FU type, per thread (Count)
system.cpu.statIssuedInstType_0::IntMult            6      0.00%     91.14% # Number of instructions issued per FU type, per thread (Count)
system.cpu.statIssuedInstType_0::IntDiv            29      0.02%     91.16% # Number of instructions issued per FU type, per thread (Count)
system.cpu.statIssuedInstType_0::FloatAdd          136      0.09%     91.24% # Number of instructions issued per FU type, per thread (Count)
system.cpu.statIssuedInstType_0::FloatCmp            0      0.00%     91.24% # Number of instructions issued per FU type, per thread (Count)
system.cpu.statIssuedInstType_0::FloatCvt            0      0.00%     91.24% # Number of instructions issued per FU type, per thread (Count)
system.cpu.statIssuedInstType_0::FloatMult            0      0.00%     91.24% # Number of instructions issued per FU type, per thread (Count)
system.cpu.statIssuedInstType_0::FloatMultAcc            0      0.00%     91.24% # Number of instructions issued per FU type, per thread (Count)
system.cpu.statIssuedInstType_0::FloatDiv            0      0.00%     91.24% # Number of instructions issued per FU type, per thread (Count)
system.cpu.statIssuedInstType_0::FloatMisc            0      0.00%     91.24% # Number of instructions issued per FU type, per thread (Count)
system.cpu.statIssuedInstType_0::FloatSqrt            0      0.00%     91.24% # Number of instructions issued per FU type, per thread (Count)
system.cpu.statIssuedInstType_0::SimdAdd            0      0.00%     91.24% # Number of instructions issued per FU type, per thread (Count)
system.cpu.statIssuedInstType_0::SimdAddAcc            0      0.00%     91.24% # Number of instructions issued per FU type, per thread (Count)
system.cpu.statIssuedInstType_0::SimdAlu          156      0.10%     91.34% # Number of instructions issued per FU type, per thread (Count)
system.cpu.statIssuedInstType_0::SimdCmp            0      0.00%     91.34% # Number of instructions issued per FU type, per thread (Count)
system.cpu.statIssuedInstType_0::SimdCvt           48      0.03%     91.37% # Number of instructions issued per FU type, per thread (Count)
system.cpu.statIssuedInstType_0::SimdMisc          218      0.14%     91.51% # Number of instructions issued per FU type, per thread (Count)
system.cpu.statIssuedInstType_0::SimdMult            0      0.00%     91.51% # Number of instructions issued per FU type, per thread (Count)
system.cpu.statIssuedInstType_0::SimdMultAcc            0      0.00%     91.51% # Number of instructions issued per FU type, per thread (Count)
system.cpu.statIssuedInstType_0::SimdShift            0      0.00%     91.51% # Number of instructions issued per FU type, per thread (Count)
system.cpu.statIssuedInstType_0::SimdShiftAcc            0      0.00%     91.51% # Number of instructions issued per FU type, per thread (Count)
system.cpu.statIssuedInstType_0::SimdDiv            0      0.00%     91.51% # Number of instructions issued per FU type, per thread (Count)
system.cpu.statIssuedInstType_0::SimdSqrt            0      0.00%     91.51% # Number of instructions issued per FU type, per thread (Count)
system.cpu.statIssuedInstType_0::SimdFloatAdd            0      0.00%     91.51% # Number of instructions issued per FU type, per thread (Count)
system.cpu.statIssuedInstType_0::SimdFloatAlu            0      0.00%     91.51% # Number of instructions issued per FU type, per thread (Count)
system.cpu.statIssuedInstType_0::SimdFloatCmp            0      0.00%     91.51% # Number of instructions issued per FU type, per thread (Count)
system.cpu.statIssuedInstType_0::SimdFloatCvt            0      0.00%     91.51% # Number of instructions issued per FU type, per thread (Count)
system.cpu.statIssuedInstType_0::SimdFloatDiv            0      0.00%     91.51% # Number of instructions issued per FU type, per thread (Count)
system.cpu.statIssuedInstType_0::SimdFloatMisc            0      0.00%     91.51% # Number of instructions issued per FU type, per thread (Count)
system.cpu.statIssuedInstType_0::SimdFloatMult            0      0.00%     91.51% # Number of instructions issued per FU type, per thread (Count)
system.cpu.statIssuedInstType_0::SimdFloatMultAcc            0      0.00%     91.51% # Number of instructions issued per FU type, per thread (Count)
system.cpu.statIssuedInstType_0::SimdFloatSqrt            0      0.00%     91.51% # Number of instructions issued per FU type, per thread (Count)
system.cpu.statIssuedInstType_0::SimdReduceAdd            0      0.00%     91.51% # Number of instructions issued per FU type, per thread (Count)
system.cpu.statIssuedInstType_0::SimdReduceAlu            0      0.00%     91.51% # Number of instructions issued per FU type, per thread (Count)
system.cpu.statIssuedInstType_0::SimdReduceCmp            0      0.00%     91.51% # Number of instructions issued per FU type, per thread (Count)
system.cpu.statIssuedInstType_0::SimdFloatReduceAdd            0      0.00%     91.51% # Number of instructions issued per FU type, per thread (Count)
system.cpu.statIssuedInstType_0::SimdFloatReduceCmp            0      0.00%     91.51% # Number of instructions issued per FU type, per thread (Count)
system.cpu.statIssuedInstType_0::SimdAes            0      0.00%     91.51% # Number of instructions issued per FU type, per thread (Count)
system.cpu.statIssuedInstType_0::SimdAesMix            0      0.00%     91.51% # Number of instructions issued per FU type, per thread (Count)
system.cpu.statIssuedInstType_0::SimdSha1Hash            0      0.00%     91.51% # Number of instructions issued per FU type, per thread (Count)
system.cpu.statIssuedInstType_0::SimdSha1Hash2            0      0.00%     91.51% # Number of instructions issued per FU type, per thread (Count)
system.cpu.statIssuedInstType_0::SimdSha256Hash            0      0.00%     91.51% # Number of instructions issued per FU type, per thread (Count)
system.cpu.statIssuedInstType_0::SimdSha256Hash2            0      0.00%     91.51% # Number of instructions issued per FU type, per thread (Count)
system.cpu.statIssuedInstType_0::SimdShaSigma2            0      0.00%     91.51% # Number of instructions issued per FU type, per thread (Count)
system.cpu.statIssuedInstType_0::SimdShaSigma3            0      0.00%     91.51% # Number of instructions issued per FU type, per thread (Count)
system.cpu.statIssuedInstType_0::SimdPredAlu            0      0.00%     91.51% # Number of instructions issued per FU type, per thread (Count)
system.cpu.statIssuedInstType_0::MemRead         6878      4.38%     95.90% # Number of instructions issued per FU type, per thread (Count)
system.cpu.statIssuedInstType_0::MemWrite         5823      3.71%     99.61% # Number of instructions issued per FU type, per thread (Count)
system.cpu.statIssuedInstType_0::FloatMemRead           86      0.05%     99.66% # Number of instructions issued per FU type, per thread (Count)
system.cpu.statIssuedInstType_0::FloatMemWrite          529      0.34%    100.00% # Number of instructions issued per FU type, per thread (Count)
system.cpu.statIssuedInstType_0::IprAccess            0      0.00%    100.00% # Number of instructions issued per FU type, per thread (Count)
system.cpu.statIssuedInstType_0::InstPrefetch            0      0.00%    100.00% # Number of instructions issued per FU type, per thread (Count)
system.cpu.statIssuedInstType_0::total         156879                       # Number of instructions issued per FU type, per thread (Count)
system.cpu.issueRate                         0.562067                       # Inst issue rate ((Count/Cycle))
system.cpu.fuBusy                                 320                       # FU busy when requested (Count)
system.cpu.fuBusyRate                        0.002040                       # FU busy rate (busy events/executed inst) ((Count/Count))
system.cpu.intInstQueueReads                   569906                       # Number of integer instruction queue reads (Count)
system.cpu.intInstQueueWrites                  170710                       # Number of integer instruction queue writes (Count)
system.cpu.intInstQueueWakeupAccesses          153981                       # Number of integer instruction queue wakeup accesses (Count)
system.cpu.fpInstQueueReads                      2654                       # Number of floating instruction queue reads (Count)
system.cpu.fpInstQueueWrites                     1529                       # Number of floating instruction queue writes (Count)
system.cpu.fpInstQueueWakeupAccesses             1277                       # Number of floating instruction queue wakeup accesses (Count)
system.cpu.vecInstQueueReads                        0                       # Number of vector instruction queue reads (Count)
system.cpu.vecInstQueueWrites                       0                       # Number of vector instruction queue writes (Count)
system.cpu.vecInstQueueWakeupAccesses               0                       # Number of vector instruction queue wakeup accesses (Count)
system.cpu.intAluAccesses                      155226                       # Number of integer alu accesses (Count)
system.cpu.fpAluAccesses                         1340                       # Number of floating point alu accesses (Count)
system.cpu.vecAluAccesses                           0                       # Number of vector alu accesses (Count)
system.cpu.idleCycles                               0                       # Number of cycles IEW is idle (Cycle)
system.cpu.squashCycles                           604                       # Number of cycles IEW is squashing (Cycle)
system.cpu.blockCycles                          14551                       # Number of cycles IEW is blocking (Cycle)
system.cpu.unblockCycles                         1434                       # Number of cycles IEW is unblocking (Cycle)
system.cpu.dispatchedInsts                     159800                       # Number of instructions dispatched to IQ (Count)
system.cpu.dispSquashedInsts                      122                       # Number of squashed instructions skipped by dispatch (Count)
system.cpu.dispLoadInsts                         7192                       # Number of dispatched load instructions (Count)
system.cpu.dispStoreInsts                        6685                       # Number of dispatched store instructions (Count)
system.cpu.dispNonSpecInsts                         1                       # Number of dispatched non-speculative instructions (Count)
system.cpu.iqFullEvents                            59                       # Number of times the IQ has become full, causing a stall (Count)
system.cpu.lsqFullEvents                         1211                       # Number of times the LSQ has become full, causing a stall (Count)
system.cpu.memOrderViolationEvents                 11                       # Number of memory order violations (Count)
system.cpu.predictedTakenIncorrect                 54                       # Number of branches that were predicted taken incorrectly (Count)
system.cpu.predictedNotTakenIncorrect             641                       # Number of branches that were predicted not taken incorrectly (Count)
system.cpu.branchMispredicts                      695                       # Number of branch mispredicts detected at execute (Count)
system.cpu.numInsts                            155994                       # Number of executed instructions (Count)
system.cpu.numLoadInsts                          6801                       # Number of load instructions executed (Count)
system.cpu.numSquashedInsts                       879                       # Number of squashed instructions skipped in execute (Count)
system.cpu.numSwp                                   0                       # Number of swp insts executed (Count)
system.cpu.numNop                                   0                       # Number of nop insts executed (Count)
system.cpu.numRefs                              13070                       # Number of memory reference insts executed (Count)
system.cpu.numBranches                           6506                       # Number of branches executed (Count)
system.cpu.numStoreInsts                         6269                       # Number of stores executed (Count)
system.cpu.numRate                           0.558896                       # Inst execution rate ((Count/Cycle))
system.cpu.instsToCommit                       155655                       # Cumulative count of insts sent to commit (Count)
system.cpu.writebackCount                      155258                       # Cumulative count of insts written-back (Count)
system.cpu.producerInst                        128997                       # Number of instructions producing a value (Count)
system.cpu.consumerInst                        238663                       # Number of instructions consuming a value (Count)
system.cpu.wbRate                            0.556259                       # Insts written-back per cycle ((Count/Cycle))
system.cpu.wbFanout                          0.540499                       # Average fanout of values written-back ((Count/Count))
system.cpu.timesIdled                             297                       # Number of times that the entire CPU went into an idle state and unscheduled itself (Count)
system.cpu.idleCycles                           20664                       # Total number of cycles that the CPU has spent unscheduled due to idling (Cycle)
system.cpu.committedInsts                       94409                       # Number of Instructions Simulated (Count)
system.cpu.committedOps                        147357                       # Number of Ops (including micro ops) Simulated (Count)
system.cpu.cpi                               2.956402                       # CPI: Cycles Per Instruction ((Cycle/Count))
system.cpu.totalCpi                          2.956402                       # CPI: Total CPI of All Threads ((Cycle/Count))
system.cpu.ipc                               0.338249                       # IPC: Instructions Per Cycle ((Count/Cycle))
system.cpu.totalIpc                          0.338249                       # IPC: Total IPC of All Threads ((Count/Cycle))
system.cpu.intRegfileReads                     242450                       # Number of integer regfile reads (Count)
system.cpu.intRegfileWrites                    141515                       # Number of integer regfile writes (Count)
system.cpu.fpRegfileReads                        1527                       # Number of floating regfile reads (Count)
system.cpu.fpRegfileWrites                        714                       # Number of floating regfile writes (Count)
system.cpu.ccRegfileReads                       80608                       # number of cc regfile reads (Count)
system.cpu.ccRegfileWrites                     146499                       # number of cc regfile writes (Count)
system.cpu.miscRegfileReads                     27070                       # number of misc regfile reads (Count)
system.cpu.MemDepUnit__0.insertedLoads           7192                       # Number of loads inserted to the mem dependence unit. (Count)
system.cpu.MemDepUnit__0.insertedStores          6685                       # Number of stores inserted to the mem dependence unit. (Count)
system.cpu.MemDepUnit__0.conflictingLoads           24                       # Number of conflicting loads. (Count)
system.cpu.MemDepUnit__0.conflictingStores            4                       # Number of conflicting stores. (Count)
system.cpu.MemDepUnit__1.insertedLoads              0                       # Number of loads inserted to the mem dependence unit. (Count)
system.cpu.MemDepUnit__1.insertedStores             0                       # Number of stores inserted to the mem dependence unit. (Count)
system.cpu.MemDepUnit__1.conflictingLoads            0                       # Number of conflicting loads. (Count)
system.cpu.MemDepUnit__1.conflictingStores            0                       # Number of conflicting stores. (Count)
system.cpu.MemDepUnit__2.insertedLoads              0                       # Number of loads inserted to the mem dependence unit. (Count)
system.cpu.MemDepUnit__2.insertedStores             0                       # Number of stores inserted to the mem dependence unit. (Count)
system.cpu.MemDepUnit__2.conflictingLoads            0                       # Number of conflicting loads. (Count)
system.cpu.MemDepUnit__2.conflictingStores            0                       # Number of conflicting stores. (Count)
system.cpu.MemDepUnit__3.insertedLoads              0                       # Number of loads inserted to the mem dependence unit. (Count)
system.cpu.MemDepUnit__3.insertedStores             0                       # Number of stores inserted to the mem dependence unit. (Count)
system.cpu.MemDepUnit__3.conflictingLoads            0                       # Number of conflicting loads. (Count)
system.cpu.MemDepUnit__3.conflictingStores            0                       # Number of conflicting stores. (Count)
system.cpu.branchPred.lookups                    8123                       # Number of BP lookups (Count)
system.cpu.branchPred.condPredicted              6935                       # Number of conditional branches predicted (Count)
system.cpu.branchPred.condIncorrect               679                       # Number of conditional branches incorrect (Count)
system.cpu.branchPred.BTBLookups                 5956                       # Number of BTB lookups (Count)
system.cpu.branchPred.BTBHits                    5252                       # Number of BTB hits (Count)
system.cpu.branchPred.BTBHitRatio            0.881800                       # BTB Hit Ratio (Ratio)
system.cpu.branchPred.RASUsed                     271                       # Number of times the RAS was used to get a target. (Count)
system.cpu.branchPred.RASIncorrect                  0                       # Number of incorrect RAS predictions. (Count)
system.cpu.branchPred.indirectLookups             311                       # Number of indirect predictor lookups. (Count)
system.cpu.branchPred.indirectHits                 20                       # Number of indirect target hits. (Count)
system.cpu.branchPred.indirectMisses              291                       # Number of indirect misses. (Count)
system.cpu.branchPred.indirectMispredicted           89                       # Number of mispredicted indirect branches. (Count)
system.cpu.commit.commitSquashedInsts           12241                       # The number of squashed insts skipped by commit (Count)
system.cpu.commit.branchMispredicts               582                       # The number of times a branch was mispredicted (Count)
system.cpu.commit.numCommittedDist::samples       256467                       # Number of insts commited each cycle (Count)
system.cpu.commit.numCommittedDist::mean     0.574565                       # Number of insts commited each cycle (Count)
system.cpu.commit.numCommittedDist::stdev     1.277367                       # Number of insts commited each cycle (Count)
system.cpu.commit.numCommittedDist::underflows            0      0.00%      0.00% # Number of insts commited each cycle (Count)
system.cpu.commit.numCommittedDist::0          183050     71.37%     71.37% # Number of insts commited each cycle (Count)
system.cpu.commit.numCommittedDist::1           40659     15.85%     87.23% # Number of insts commited each cycle (Count)
system.cpu.commit.numCommittedDist::2           17515      6.83%     94.06% # Number of insts commited each cycle (Count)
system.cpu.commit.numCommittedDist::3            7474      2.91%     96.97% # Number of insts commited each cycle (Count)
system.cpu.commit.numCommittedDist::4             961      0.37%     97.35% # Number of insts commited each cycle (Count)
system.cpu.commit.numCommittedDist::5             340      0.13%     97.48% # Number of insts commited each cycle (Count)
system.cpu.commit.numCommittedDist::6            3975      1.55%     99.03% # Number of insts commited each cycle (Count)
system.cpu.commit.numCommittedDist::7              92      0.04%     99.06% # Number of insts commited each cycle (Count)
system.cpu.commit.numCommittedDist::8            2401      0.94%    100.00% # Number of insts commited each cycle (Count)
system.cpu.commit.numCommittedDist::overflows            0      0.00%    100.00% # Number of insts commited each cycle (Count)
system.cpu.commit.numCommittedDist::min_value            0                       # Number of insts commited each cycle (Count)
system.cpu.commit.numCommittedDist::max_value            8                       # Number of insts commited each cycle (Count)
system.cpu.commit.numCommittedDist::total       256467                       # Number of insts commited each cycle (Count)
system.cpu.commit.instsCommitted                94409                       # Number of instructions committed (Count)
system.cpu.commit.opsCommitted                 147357                       # Number of ops (including micro ops) committed (Count)
system.cpu.commit.memRefs                       11378                       # Number of memory references committed (Count)
system.cpu.commit.loads                          5646                       # Number of loads committed (Count)
system.cpu.commit.amos                              0                       # Number of atomic instructions committed (Count)
system.cpu.commit.membars                           0                       # Number of memory barriers committed (Count)
system.cpu.commit.branches                       5840                       # Number of branches committed (Count)
system.cpu.commit.vectorInstructions                0                       # Number of committed Vector instructions. (Count)
system.cpu.commit.floating                       1149                       # Number of committed floating point instructions. (Count)
system.cpu.commit.integer                      146608                       # Number of committed integer instructions. (Count)
system.cpu.commit.functionCalls                   150                       # Number of function calls committed. (Count)
system.cpu.commit.committedInstType_0::No_OpClass          194      0.13%      0.13% # Class of committed instruction (Count)
system.cpu.commit.committedInstType_0::IntAlu       135269     91.80%     91.93% # Class of committed instruction (Count)
system.cpu.commit.committedInstType_0::IntMult            5      0.00%     91.93% # Class of committed instruction (Count)
system.cpu.commit.committedInstType_0::IntDiv           21      0.01%     91.95% # Class of committed instruction (Count)
system.cpu.commit.committedInstType_0::FloatAdd          135      0.09%     92.04% # Class of committed instruction (Count)
system.cpu.commit.committedInstType_0::FloatCmp            0      0.00%     92.04% # Class of committed instruction (Count)
system.cpu.commit.committedInstType_0::FloatCvt            0      0.00%     92.04% # Class of committed instruction (Count)
system.cpu.commit.committedInstType_0::FloatMult            0      0.00%     92.04% # Class of committed instruction (Count)
system.cpu.commit.committedInstType_0::FloatMultAcc            0      0.00%     92.04% # Class of committed instruction (Count)
system.cpu.commit.committedInstType_0::FloatDiv            0      0.00%     92.04% # Class of committed instruction (Count)
system.cpu.commit.committedInstType_0::FloatMisc            0      0.00%     92.04% # Class of committed instruction (Count)
system.cpu.commit.committedInstType_0::FloatSqrt            0      0.00%     92.04% # Class of committed instruction (Count)
system.cpu.commit.committedInstType_0::SimdAdd            0      0.00%     92.04% # Class of committed instruction (Count)
system.cpu.commit.committedInstType_0::SimdAddAcc            0      0.00%     92.04% # Class of committed instruction (Count)
system.cpu.commit.committedInstType_0::SimdAlu           94      0.06%     92.10% # Class of committed instruction (Count)
system.cpu.commit.committedInstType_0::SimdCmp            0      0.00%     92.10% # Class of committed instruction (Count)
system.cpu.commit.committedInstType_0::SimdCvt           46      0.03%     92.13% # Class of committed instruction (Count)
system.cpu.commit.committedInstType_0::SimdMisc          215      0.15%     92.28% # Class of committed instruction (Count)
system.cpu.commit.committedInstType_0::SimdMult            0      0.00%     92.28% # Class of committed instruction (Count)
system.cpu.commit.committedInstType_0::SimdMultAcc            0      0.00%     92.28% # Class of committed instruction (Count)
system.cpu.commit.committedInstType_0::SimdShift            0      0.00%     92.28% # Class of committed instruction (Count)
system.cpu.commit.committedInstType_0::SimdShiftAcc            0      0.00%     92.28% # Class of committed instruction (Count)
system.cpu.commit.committedInstType_0::SimdDiv            0      0.00%     92.28% # Class of committed instruction (Count)
system.cpu.commit.committedInstType_0::SimdSqrt            0      0.00%     92.28% # Class of committed instruction (Count)
system.cpu.commit.committedInstType_0::SimdFloatAdd            0      0.00%     92.28% # Class of committed instruction (Count)
system.cpu.commit.committedInstType_0::SimdFloatAlu            0      0.00%     92.28% # Class of committed instruction (Count)
system.cpu.commit.committedInstType_0::SimdFloatCmp            0      0.00%     92.28% # Class of committed instruction (Count)
system.cpu.commit.committedInstType_0::SimdFloatCvt            0      0.00%     92.28% # Class of committed instruction (Count)
system.cpu.commit.committedInstType_0::SimdFloatDiv            0      0.00%     92.28% # Class of committed instruction (Count)
system.cpu.commit.committedInstType_0::SimdFloatMisc            0      0.00%     92.28% # Class of committed instruction (Count)
system.cpu.commit.committedInstType_0::SimdFloatMult            0      0.00%     92.28% # Class of committed instruction (Count)
system.cpu.commit.committedInstType_0::SimdFloatMultAcc            0      0.00%     92.28% # Class of committed instruction (Count)
system.cpu.commit.committedInstType_0::SimdFloatSqrt            0      0.00%     92.28% # Class of committed instruction (Count)
system.cpu.commit.committedInstType_0::SimdReduceAdd            0      0.00%     92.28% # Class of committed instruction (Count)
system.cpu.commit.committedInstType_0::SimdReduceAlu            0      0.00%     92.28% # Class of committed instruction (Count)
system.cpu.commit.committedInstType_0::SimdReduceCmp            0      0.00%     92.28% # Class of committed instruction (Count)
system.cpu.commit.committedInstType_0::SimdFloatReduceAdd            0      0.00%     92.28% # Class of committed instruction (Count)
system.cpu.commit.committedInstType_0::SimdFloatReduceCmp            0      0.00%     92.28% # Class of committed instruction (Count)
system.cpu.commit.committedInstType_0::SimdAes            0      0.00%     92.28% # Class of committed instruction (Count)
system.cpu.commit.committedInstType_0::SimdAesMix            0      0.00%     92.28% # Class of committed instruction (Count)
system.cpu.commit.committedInstType_0::SimdSha1Hash            0      0.00%     92.28% # Class of committed instruction (Count)
system.cpu.commit.committedInstType_0::SimdSha1Hash2            0      0.00%     92.28% # Class of committed instruction (Count)
system.cpu.commit.committedInstType_0::SimdSha256Hash            0      0.00%     92.28% # Class of committed instruction (Count)
system.cpu.commit.committedInstType_0::SimdSha256Hash2            0      0.00%     92.28% # Class of committed instruction (Count)
system.cpu.commit.committedInstType_0::SimdShaSigma2            0      0.00%     92.28% # Class of committed instruction (Count)
system.cpu.commit.committedInstType_0::SimdShaSigma3            0      0.00%     92.28% # Class of committed instruction (Count)
system.cpu.commit.committedInstType_0::SimdPredAlu            0      0.00%     92.28% # Class of committed instruction (Count)
system.cpu.commit.committedInstType_0::MemRead         5592      3.79%     96.07% # Class of committed instruction (Count)
system.cpu.commit.committedInstType_0::MemWrite         5266      3.57%     99.65% # Class of committed instruction (Count)
system.cpu.commit.committedInstType_0::FloatMemRead           54      0.04%     99.68% # Class of committed instruction (Count)
system.cpu.commit.committedInstType_0::FloatMemWrite          466      0.32%    100.00% # Class of committed instruction (Count)
system.cpu.commit.committedInstType_0::IprAccess            0      0.00%    100.00% # Class of committed instruction (Count)
system.cpu.commit.committedInstType_0::InstPrefetch            0      0.00%    100.00% # Class of committed instruction (Count)
system.cpu.commit.committedInstType_0::total       147357                       # Class of committed instruction (Count)
system.cpu.commit.commitEligibleSamples          2401                       # number cycles where commit BW limit reached (Cycle)
system.cpu.dcache.demandHits::cpu.data           3935                       # number of demand (read+write) hits (Count)
system.cpu.dcache.demandHits::total              3935                       # number of demand (read+write) hits (Count)
system.cpu.dcache.overallHits::cpu.data          3935                       # number of overall hits (Count)
system.cpu.dcache.overallHits::total             3935                       # number of overall hits (Count)
system.cpu.dcache.demandMisses::cpu.data         5713                       # number of demand (read+write) misses (Count)
system.cpu.dcache.demandMisses::total            5713                       # number of demand (read+write) misses (Count)
system.cpu.dcache.overallMisses::cpu.data         5713                       # number of overall misses (Count)
system.cpu.dcache.overallMisses::total           5713                       # number of overall misses (Count)
system.cpu.dcache.demandMissLatency::cpu.data    334495000                       # number of demand (read+write) miss ticks (Tick)
system.cpu.dcache.demandMissLatency::total    334495000                       # number of demand (read+write) miss ticks (Tick)
system.cpu.dcache.overallMissLatency::cpu.data    334495000                       # number of overall miss ticks (Tick)
system.cpu.dcache.overallMissLatency::total    334495000                       # number of overall miss ticks (Tick)
system.cpu.dcache.demandAccesses::cpu.data         9648                       # number of demand (read+write) accesses (Count)
system.cpu.dcache.demandAccesses::total          9648                       # number of demand (read+write) accesses (Count)
system.cpu.dcache.overallAccesses::cpu.data         9648                       # number of overall (read+write) accesses (Count)
system.cpu.dcache.overallAccesses::total         9648                       # number of overall (read+write) accesses (Count)
system.cpu.dcache.demandMissRate::cpu.data     0.592143                       # miss rate for demand accesses (Ratio)
system.cpu.dcache.demandMissRate::total      0.592143                       # miss rate for demand accesses (Ratio)
system.cpu.dcache.overallMissRate::cpu.data     0.592143                       # miss rate for overall accesses (Ratio)
system.cpu.dcache.overallMissRate::total     0.592143                       # miss rate for overall accesses (Ratio)
system.cpu.dcache.demandAvgMissLatency::cpu.data 58549.798705                       # average overall miss latency ((Cycle/Count))
system.cpu.dcache.demandAvgMissLatency::total 58549.798705                       # average overall miss latency ((Cycle/Count))
system.cpu.dcache.overallAvgMissLatency::cpu.data 58549.798705                       # average overall miss latency ((Cycle/Count))
system.cpu.dcache.overallAvgMissLatency::total 58549.798705                       # average overall miss latency ((Cycle/Count))
system.cpu.dcache.blockedCycles::no_mshrs          369                       # number of cycles access was blocked (Cycle)
system.cpu.dcache.blockedCycles::no_targets            0                       # number of cycles access was blocked (Cycle)
system.cpu.dcache.blockedCauses::no_mshrs           15                       # number of times access was blocked (Count)
system.cpu.dcache.blockedCauses::no_targets            0                       # number of times access was blocked (Count)
system.cpu.dcache.avgBlocked::no_mshrs      24.600000                       # average number of cycles each access was blocked ((Cycle/Count))
system.cpu.dcache.avgBlocked::no_targets          nan                       # average number of cycles each access was blocked ((Cycle/Count))
system.cpu.dcache.writebacks::writebacks         5263                       # number of writebacks (Count)
system.cpu.dcache.writebacks::total              5263                       # number of writebacks (Count)
system.cpu.dcache.demandMshrHits::cpu.data          183                       # number of demand (read+write) MSHR hits (Count)
system.cpu.dcache.demandMshrHits::total           183                       # number of demand (read+write) MSHR hits (Count)
system.cpu.dcache.overallMshrHits::cpu.data          183                       # number of overall MSHR hits (Count)
system.cpu.dcache.overallMshrHits::total          183                       # number of overall MSHR hits (Count)
system.cpu.dcache.demandMshrMisses::cpu.data         5530                       # number of demand (read+write) MSHR misses (Count)
system.cpu.dcache.demandMshrMisses::total         5530                       # number of demand (read+write) MSHR misses (Count)
system.cpu.dcache.overallMshrMisses::cpu.data         5530                       # number of overall MSHR misses (Count)
system.cpu.dcache.overallMshrMisses::total         5530                       # number of overall MSHR misses (Count)
system.cpu.dcache.demandMshrMissLatency::cpu.data    310487016                       # number of demand (read+write) MSHR miss ticks (Tick)
system.cpu.dcache.demandMshrMissLatency::total    310487016                       # number of demand (read+write) MSHR miss ticks (Tick)
system.cpu.dcache.overallMshrMissLatency::cpu.data    310487016                       # number of overall MSHR miss ticks (Tick)
system.cpu.dcache.overallMshrMissLatency::total    310487016                       # number of overall MSHR miss ticks (Tick)
system.cpu.dcache.demandMshrMissRate::cpu.data     0.573176                       # mshr miss ratio for demand accesses (Ratio)
system.cpu.dcache.demandMshrMissRate::total     0.573176                       # mshr miss ratio for demand accesses (Ratio)
system.cpu.dcache.overallMshrMissRate::cpu.data     0.573176                       # mshr miss ratio for overall accesses (Ratio)
system.cpu.dcache.overallMshrMissRate::total     0.573176                       # mshr miss ratio for overall accesses (Ratio)
system.cpu.dcache.demandAvgMshrMissLatency::cpu.data 56145.934177                       # average overall mshr miss latency ((Cycle/Count))
system.cpu.dcache.demandAvgMshrMissLatency::total 56145.934177                       # average overall mshr miss latency ((Cycle/Count))
system.cpu.dcache.overallAvgMshrMissLatency::cpu.data 56145.934177                       # average overall mshr miss latency ((Cycle/Count))
system.cpu.dcache.overallAvgMshrMissLatency::total 56145.934177                       # average overall mshr miss latency ((Cycle/Count))
system.cpu.dcache.replacements                   5263                       # number of replacements (Count)
system.cpu.dcache.ReadReq.hits::cpu.data         2274                       # number of ReadReq hits (Count)
system.cpu.dcache.ReadReq.hits::total            2274                       # number of ReadReq hits (Count)
system.cpu.dcache.ReadReq.misses::cpu.data         1641                       # number of ReadReq misses (Count)
system.cpu.dcache.ReadReq.misses::total          1641                       # number of ReadReq misses (Count)
system.cpu.dcache.ReadReq.missLatency::cpu.data     92839000                       # number of ReadReq miss ticks (Tick)
system.cpu.dcache.ReadReq.missLatency::total     92839000                       # number of ReadReq miss ticks (Tick)
system.cpu.dcache.ReadReq.accesses::cpu.data         3915                       # number of ReadReq accesses(hits+misses) (Count)
system.cpu.dcache.ReadReq.accesses::total         3915                       # number of ReadReq accesses(hits+misses) (Count)
system.cpu.dcache.ReadReq.missRate::cpu.data     0.419157                       # miss rate for ReadReq accesses (Ratio)
system.cpu.dcache.ReadReq.missRate::total     0.419157                       # miss rate for ReadReq accesses (Ratio)
system.cpu.dcache.ReadReq.avgMissLatency::cpu.data 56574.649604                       # average ReadReq miss latency ((Tick/Count))
system.cpu.dcache.ReadReq.avgMissLatency::total 56574.649604                       # average ReadReq miss latency ((Tick/Count))
system.cpu.dcache.ReadReq.mshrHits::cpu.data          181                       # number of ReadReq MSHR hits (Count)
system.cpu.dcache.ReadReq.mshrHits::total          181                       # number of ReadReq MSHR hits (Count)
system.cpu.dcache.ReadReq.mshrMisses::cpu.data         1460                       # number of ReadReq MSHR misses (Count)
system.cpu.dcache.ReadReq.mshrMisses::total         1460                       # number of ReadReq MSHR misses (Count)
system.cpu.dcache.ReadReq.mshrMissLatency::cpu.data     76987004                       # number of ReadReq MSHR miss ticks (Tick)
system.cpu.dcache.ReadReq.mshrMissLatency::total     76987004                       # number of ReadReq MSHR miss ticks (Tick)
system.cpu.dcache.ReadReq.mshrMissRate::cpu.data     0.372925                       # mshr miss rate for ReadReq accesses (Ratio)
system.cpu.dcache.ReadReq.mshrMissRate::total     0.372925                       # mshr miss rate for ReadReq accesses (Ratio)
system.cpu.dcache.ReadReq.avgMshrMissLatency::cpu.data 52730.824658                       # average ReadReq mshr miss latency ((Tick/Count))
system.cpu.dcache.ReadReq.avgMshrMissLatency::total 52730.824658                       # average ReadReq mshr miss latency ((Tick/Count))
system.cpu.dcache.WriteReq.hits::cpu.data         1661                       # number of WriteReq hits (Count)
system.cpu.dcache.WriteReq.hits::total           1661                       # number of WriteReq hits (Count)
system.cpu.dcache.WriteReq.misses::cpu.data         4072                       # number of WriteReq misses (Count)
system.cpu.dcache.WriteReq.misses::total         4072                       # number of WriteReq misses (Count)
system.cpu.dcache.WriteReq.missLatency::cpu.data    241656000                       # number of WriteReq miss ticks (Tick)
system.cpu.dcache.WriteReq.missLatency::total    241656000                       # number of WriteReq miss ticks (Tick)
system.cpu.dcache.WriteReq.accesses::cpu.data         5733                       # number of WriteReq accesses(hits+misses) (Count)
system.cpu.dcache.WriteReq.accesses::total         5733                       # number of WriteReq accesses(hits+misses) (Count)
system.cpu.dcache.WriteReq.missRate::cpu.data     0.710274                       # miss rate for WriteReq accesses (Ratio)
system.cpu.dcache.WriteReq.missRate::total     0.710274                       # miss rate for WriteReq accesses (Ratio)
system.cpu.dcache.WriteReq.avgMissLatency::cpu.data 59345.776031                       # average WriteReq miss latency ((Tick/Count))
system.cpu.dcache.WriteReq.avgMissLatency::total 59345.776031                       # average WriteReq miss latency ((Tick/Count))
system.cpu.dcache.WriteReq.mshrHits::cpu.data            2                       # number of WriteReq MSHR hits (Count)
system.cpu.dcache.WriteReq.mshrHits::total            2                       # number of WriteReq MSHR hits (Count)
system.cpu.dcache.WriteReq.mshrMisses::cpu.data         4070                       # number of WriteReq MSHR misses (Count)
system.cpu.dcache.WriteReq.mshrMisses::total         4070                       # number of WriteReq MSHR misses (Count)
system.cpu.dcache.WriteReq.mshrMissLatency::cpu.data    233500012                       # number of WriteReq MSHR miss ticks (Tick)
system.cpu.dcache.WriteReq.mshrMissLatency::total    233500012                       # number of WriteReq MSHR miss ticks (Tick)
system.cpu.dcache.WriteReq.mshrMissRate::cpu.data     0.709925                       # mshr miss rate for WriteReq accesses (Ratio)
system.cpu.dcache.WriteReq.mshrMissRate::total     0.709925                       # mshr miss rate for WriteReq accesses (Ratio)
system.cpu.dcache.WriteReq.avgMshrMissLatency::cpu.data 57371.010319                       # average WriteReq mshr miss latency ((Tick/Count))
system.cpu.dcache.WriteReq.avgMshrMissLatency::total 57371.010319                       # average WriteReq mshr miss latency ((Tick/Count))
system.cpu.dcache.power_state.pwrStateResidencyTicks::UNDEFINED    279110000                       # Cumulative time (in ticks) in various power states (Tick)
system.cpu.dcache.tags.tagsInUse           204.927133                       # Average ticks per tags in use ((Tick/Count))
system.cpu.dcache.tags.totalRefs                 9467                       # Total number of references to valid blocks. (Count)
system.cpu.dcache.tags.sampledRefs               5502                       # Sample count of references to valid blocks. (Count)
system.cpu.dcache.tags.avgRefs               1.720647                       # Average number of references to valid blocks. ((Count/Count))
system.cpu.dcache.tags.warmupTick              225000                       # The tick when the warmup percentage was hit. (Tick)
system.cpu.dcache.tags.occupancies::cpu.data   204.927133                       # Average occupied blocks per tick, per requestor ((Count/Tick))
system.cpu.dcache.tags.avgOccs::cpu.data     0.200124                       # Average percentage of cache occupancy ((Ratio/Tick))
system.cpu.dcache.tags.avgOccs::total        0.200124                       # Average percentage of cache occupancy ((Ratio/Tick))
system.cpu.dcache.tags.occupanciesTaskId::1024          239                       # Occupied blocks per task id (Count)
system.cpu.dcache.tags.ageTaskId_1024::0           20                       # Occupied blocks per task id, per block age (Count)
system.cpu.dcache.tags.ageTaskId_1024::2          219                       # Occupied blocks per task id, per block age (Count)
system.cpu.dcache.tags.ratioOccsTaskId::1024     0.233398                       # Ratio of occupied blocks and all blocks, per task id (Ratio)
system.cpu.dcache.tags.tagAccesses              24798                       # Number of tag accesses (Count)
system.cpu.dcache.tags.dataAccesses             24798                       # Number of data accesses (Count)
system.cpu.dcache.tags.power_state.pwrStateResidencyTicks::UNDEFINED    279110000                       # Cumulative time (in ticks) in various power states (Tick)
system.cpu.decode.idleCycles                    21405                       # Number of cycles decode is idle (Cycle)
system.cpu.decode.blockedCycles                214796                       # Number of cycles decode is blocked (Cycle)
system.cpu.decode.runCycles                     12874                       # Number of cycles decode is running (Cycle)
system.cpu.decode.unblockCycles                  8768                       # Number of cycles decode is unblocking (Cycle)
system.cpu.decode.squashCycles                    604                       # Number of cycles decode is squashing (Cycle)
system.cpu.decode.branchResolved                 5396                       # Number of times decode resolved a branch (Count)
system.cpu.decode.branchMispred                   228                       # Number of times decode detected a branch misprediction (Count)
system.cpu.decode.decodedInsts                 163488                       # Number of instructions handled by decode (Count)
system.cpu.decode.squashedInsts                  1150                       # Number of squashed instructions handled by decode (Count)
system.cpu.fetch.icacheStallCycles              26139                       # Number of cycles fetch is stalled on an Icache miss (Cycle)
system.cpu.fetch.insts                         105232                       # Number of instructions fetch has processed (Count)
system.cpu.fetch.branches                        8123                       # Number of branches that fetch encountered (Count)
system.cpu.fetch.predictedBranches               5543                       # Number of branches that fetch has predicted taken (Count)
system.cpu.fetch.cycles                        230559                       # Number of cycles fetch has run and was not squashing or blocked (Cycle)
system.cpu.fetch.squashCycles                    1644                       # Number of cycles fetch has spent squashing (Cycle)
system.cpu.fetch.miscStallCycles                  132                       # Number of cycles fetch has spent waiting on interrupts, or bad addresses, or out of MSHRs (Cycle)
system.cpu.fetch.pendingTrapStallCycles           780                       # Number of stall cycles due to pending traps (Cycle)
system.cpu.fetch.pendingQuiesceStallCycles            4                       # Number of stall cycles due to pending quiesce instructions (Cycle)
system.cpu.fetch.icacheWaitRetryStallCycles           11                       # Number of stall cycles due to full MSHR (Cycle)
system.cpu.fetch.cacheLines                     10672                       # Number of cache lines fetched (Count)
system.cpu.fetch.icacheSquashes                   352                       # Number of outstanding Icache misses that were squashed (Count)
system.cpu.fetch.nisnDist::samples             258447                       # Number of instructions fetched each cycle (Total) (Count)
system.cpu.fetch.nisnDist::mean              0.647955                       # Number of instructions fetched each cycle (Total) (Count)
system.cpu.fetch.nisnDist::stdev             2.043708                       # Number of instructions fetched each cycle (Total) (Count)
system.cpu.fetch.nisnDist::underflows               0      0.00%      0.00% # Number of instructions fetched each cycle (Total) (Count)
system.cpu.fetch.nisnDist::0                   232317     89.89%     89.89% # Number of instructions fetched each cycle (Total) (Count)
system.cpu.fetch.nisnDist::1                      245      0.09%     89.98% # Number of instructions fetched each cycle (Total) (Count)
system.cpu.fetch.nisnDist::2                      201      0.08%     90.06% # Number of instructions fetched each cycle (Total) (Count)
system.cpu.fetch.nisnDist::3                     4448      1.72%     91.78% # Number of instructions fetched each cycle (Total) (Count)
system.cpu.fetch.nisnDist::4                      573      0.22%     92.00% # Number of instructions fetched each cycle (Total) (Count)
system.cpu.fetch.nisnDist::5                     4437      1.72%     93.72% # Number of instructions fetched each cycle (Total) (Count)
system.cpu.fetch.nisnDist::6                      271      0.10%     93.83% # Number of instructions fetched each cycle (Total) (Count)
system.cpu.fetch.nisnDist::7                      272      0.11%     93.93% # Number of instructions fetched each cycle (Total) (Count)
system.cpu.fetch.nisnDist::8                    15683      6.07%    100.00% # Number of instructions fetched each cycle (Total) (Count)
system.cpu.fetch.nisnDist::overflows                0      0.00%    100.00% # Number of instructions fetched each cycle (Total) (Count)
system.cpu.fetch.nisnDist::min_value                0                       # Number of instructions fetched each cycle (Total) (Count)
system.cpu.fetch.nisnDist::max_value                8                       # Number of instructions fetched each cycle (Total) (Count)
system.cpu.fetch.nisnDist::total               258447                       # Number of instructions fetched each cycle (Total) (Count)
system.cpu.fetch.branchRate                  0.029103                       # Number of branch fetches per cycle (Ratio)
system.cpu.fetch.rate                        0.377026                       # Number of inst fetches per cycle ((Count/Cycle))
system.cpu.icache.demandHits::cpu.inst          10045                       # number of demand (read+write) hits (Count)
system.cpu.icache.demandHits::total             10045                       # number of demand (read+write) hits (Count)
system.cpu.icache.overallHits::cpu.inst         10045                       # number of overall hits (Count)
system.cpu.icache.overallHits::total            10045                       # number of overall hits (Count)
system.cpu.icache.demandMisses::cpu.inst          627                       # number of demand (read+write) misses (Count)
system.cpu.icache.demandMisses::total             627                       # number of demand (read+write) misses (Count)
system.cpu.icache.overallMisses::cpu.inst          627                       # number of overall misses (Count)
system.cpu.icache.overallMisses::total            627                       # number of overall misses (Count)
system.cpu.icache.demandMissLatency::cpu.inst     62543000                       # number of demand (read+write) miss ticks (Tick)
system.cpu.icache.demandMissLatency::total     62543000                       # number of demand (read+write) miss ticks (Tick)
system.cpu.icache.overallMissLatency::cpu.inst     62543000                       # number of overall miss ticks (Tick)
system.cpu.icache.overallMissLatency::total     62543000                       # number of overall miss ticks (Tick)
system.cpu.icache.demandAccesses::cpu.inst        10672                       # number of demand (read+write) accesses (Count)
system.cpu.icache.demandAccesses::total         10672                       # number of demand (read+write) accesses (Count)
system.cpu.icache.overallAccesses::cpu.inst        10672                       # number of overall (read+write) accesses (Count)
system.cpu.icache.overallAccesses::total        10672                       # number of overall (read+write) accesses (Count)
system.cpu.icache.demandMissRate::cpu.inst     0.058752                       # miss rate for demand accesses (Ratio)
system.cpu.icache.demandMissRate::total      0.058752                       # miss rate for demand accesses (Ratio)
system.cpu.icache.overallMissRate::cpu.inst     0.058752                       # miss rate for overall accesses (Ratio)
system.cpu.icache.overallMissRate::total     0.058752                       # miss rate for overall accesses (Ratio)
system.cpu.icache.demandAvgMissLatency::cpu.inst 99749.601276                       # average overall miss latency ((Cycle/Count))
system.cpu.icache.demandAvgMissLatency::total 99749.601276                       # average overall miss latency ((Cycle/Count))
system.cpu.icache.overallAvgMissLatency::cpu.inst 99749.601276                       # average overall miss latency ((Cycle/Count))
system.cpu.icache.overallAvgMissLatency::total 99749.601276                       # average overall miss latency ((Cycle/Count))
system.cpu.icache.blockedCycles::no_mshrs           72                       # number of cycles access was blocked (Cycle)
system.cpu.icache.blockedCycles::no_targets            0                       # number of cycles access was blocked (Cycle)
system.cpu.icache.blockedCauses::no_mshrs            3                       # number of times access was blocked (Count)
system.cpu.icache.blockedCauses::no_targets            0                       # number of times access was blocked (Count)
system.cpu.icache.avgBlocked::no_mshrs             24                       # average number of cycles each access was blocked ((Cycle/Count))
system.cpu.icache.avgBlocked::no_targets          nan                       # average number of cycles each access was blocked ((Cycle/Count))
system.cpu.icache.demandMshrHits::cpu.inst          145                       # number of demand (read+write) MSHR hits (Count)
system.cpu.icache.demandMshrHits::total           145                       # number of demand (read+write) MSHR hits (Count)
system.cpu.icache.overallMshrHits::cpu.inst          145                       # number of overall MSHR hits (Count)
system.cpu.icache.overallMshrHits::total          145                       # number of overall MSHR hits (Count)
system.cpu.icache.demandMshrMisses::cpu.inst          482                       # number of demand (read+write) MSHR misses (Count)
system.cpu.icache.demandMshrMisses::total          482                       # number of demand (read+write) MSHR misses (Count)
system.cpu.icache.overallMshrMisses::cpu.inst          482                       # number of overall MSHR misses (Count)
system.cpu.icache.overallMshrMisses::total          482                       # number of overall MSHR misses (Count)
system.cpu.icache.demandMshrMissLatency::cpu.inst     49969000                       # number of demand (read+write) MSHR miss ticks (Tick)
system.cpu.icache.demandMshrMissLatency::total     49969000                       # number of demand (read+write) MSHR miss ticks (Tick)
system.cpu.icache.overallMshrMissLatency::cpu.inst     49969000                       # number of overall MSHR miss ticks (Tick)
system.cpu.icache.overallMshrMissLatency::total     49969000                       # number of overall MSHR miss ticks (Tick)
system.cpu.icache.demandMshrMissRate::cpu.inst     0.045165                       # mshr miss ratio for demand accesses (Ratio)
system.cpu.icache.demandMshrMissRate::total     0.045165                       # mshr miss ratio for demand accesses (Ratio)
system.cpu.icache.overallMshrMissRate::cpu.inst     0.045165                       # mshr miss ratio for overall accesses (Ratio)
system.cpu.icache.overallMshrMissRate::total     0.045165                       # mshr miss ratio for overall accesses (Ratio)
system.cpu.icache.demandAvgMshrMissLatency::cpu.inst 103670.124481                       # average overall mshr miss latency ((Cycle/Count))
system.cpu.icache.demandAvgMshrMissLatency::total 103670.124481                       # average overall mshr miss latency ((Cycle/Count))
system.cpu.icache.overallAvgMshrMissLatency::cpu.inst 103670.124481                       # average overall mshr miss latency ((Cycle/Count))
system.cpu.icache.overallAvgMshrMissLatency::total 103670.124481                       # average overall mshr miss latency ((Cycle/Count))
system.cpu.icache.replacements                    236                       # number of replacements (Count)
system.cpu.icache.ReadReq.hits::cpu.inst        10045                       # number of ReadReq hits (Count)
system.cpu.icache.ReadReq.hits::total           10045                       # number of ReadReq hits (Count)
system.cpu.icache.ReadReq.misses::cpu.inst          627                       # number of ReadReq misses (Count)
system.cpu.icache.ReadReq.misses::total           627                       # number of ReadReq misses (Count)
system.cpu.icache.ReadReq.missLatency::cpu.inst     62543000                       # number of ReadReq miss ticks (Tick)
system.cpu.icache.ReadReq.missLatency::total     62543000                       # number of ReadReq miss ticks (Tick)
system.cpu.icache.ReadReq.accesses::cpu.inst        10672                       # number of ReadReq accesses(hits+misses) (Count)
system.cpu.icache.ReadReq.accesses::total        10672                       # number of ReadReq accesses(hits+misses) (Count)
system.cpu.icache.ReadReq.missRate::cpu.inst     0.058752                       # miss rate for ReadReq accesses (Ratio)
system.cpu.icache.ReadReq.missRate::total     0.058752                       # miss rate for ReadReq accesses (Ratio)
system.cpu.icache.ReadReq.avgMissLatency::cpu.inst 99749.601276                       # average ReadReq miss latency ((Tick/Count))
system.cpu.icache.ReadReq.avgMissLatency::total 99749.601276                       # average ReadReq miss latency ((Tick/Count))
system.cpu.icache.ReadReq.mshrHits::cpu.inst          145                       # number of ReadReq MSHR hits (Count)
system.cpu.icache.ReadReq.mshrHits::total          145                       # number of ReadReq MSHR hits (Count)
system.cpu.icache.ReadReq.mshrMisses::cpu.inst          482                       # number of ReadReq MSHR misses (Count)
system.cpu.icache.ReadReq.mshrMisses::total          482                       # number of ReadReq MSHR misses (Count)
system.cpu.icache.ReadReq.mshrMissLatency::cpu.inst     49969000                       # number of ReadReq MSHR miss ticks (Tick)
system.cpu.icache.ReadReq.mshrMissLatency::total     49969000                       # number of ReadReq MSHR miss ticks (Tick)
system.cpu.icache.ReadReq.mshrMissRate::cpu.inst     0.045165                       # mshr miss rate for ReadReq accesses (Ratio)
system.cpu.icache.ReadReq.mshrMissRate::total     0.045165                       # mshr miss rate for ReadReq accesses (Ratio)
system.cpu.icache.ReadReq.avgMshrMissLatency::cpu.inst 103670.124481                       # average ReadReq mshr miss latency ((Tick/Count))
system.cpu.icache.ReadReq.avgMshrMissLatency::total 103670.124481                       # average ReadReq mshr miss latency ((Tick/Count))
system.cpu.icache.power_state.pwrStateResidencyTicks::UNDEFINED    279110000                       # Cumulative time (in ticks) in various power states (Tick)
system.cpu.icache.tags.tagsInUse           226.796091                       # Average ticks per tags in use ((Tick/Count))
system.cpu.icache.tags.totalRefs                10527                       # Total number of references to valid blocks. (Count)
system.cpu.icache.tags.sampledRefs                482                       # Sample count of references to valid blocks. (Count)
system.cpu.icache.tags.avgRefs              21.840249                       # Average number of references to valid blocks. ((Count/Count))
system.cpu.icache.tags.warmupTick              107000                       # The tick when the warmup percentage was hit. (Tick)
system.cpu.icache.tags.occupancies::cpu.inst   226.796091                       # Average occupied blocks per tick, per requestor ((Count/Tick))
system.cpu.icache.tags.avgOccs::cpu.inst     0.885922                       # Average percentage of cache occupancy ((Ratio/Tick))
system.cpu.icache.tags.avgOccs::total        0.885922                       # Average percentage of cache occupancy ((Ratio/Tick))
system.cpu.icache.tags.occupanciesTaskId::1024          246                       # Occupied blocks per task id (Count)
system.cpu.icache.tags.ageTaskId_1024::0           38                       # Occupied blocks per task id, per block age (Count)
system.cpu.icache.tags.ageTaskId_1024::2          208                       # Occupied blocks per task id, per block age (Count)
system.cpu.icache.tags.ratioOccsTaskId::1024     0.960938                       # Ratio of occupied blocks and all blocks, per task id (Ratio)
system.cpu.icache.tags.tagAccesses              21826                       # Number of tag accesses (Count)
system.cpu.icache.tags.dataAccesses             21826                       # Number of data accesses (Count)
system.cpu.icache.tags.power_state.pwrStateResidencyTicks::UNDEFINED    279110000                       # Cumulative time (in ticks) in various power states (Tick)
system.cpu.interrupts.clk_domain.clock          16000                       # Clock period in ticks (Tick)
system.cpu.lsq0.forwLoads                        2781                       # Number of loads that had data forwarded from stores (Count)
system.cpu.lsq0.squashedLoads                    1546                       # Number of loads squashed (Count)
system.cpu.lsq0.ignoredResponses                    4                       # Number of memory responses ignored because the instruction is squashed (Count)
system.cpu.lsq0.memOrderViolation                  11                       # Number of memory ordering violations (Count)
system.cpu.lsq0.squashedStores                    953                       # Number of stores squashed (Count)
system.cpu.lsq0.rescheduledLoads                    1                       # Number of loads that were rescheduled (Count)
system.cpu.lsq0.blockedByCache                     10                       # Number of times an access to memory failed due to the cache being blocked (Count)
system.cpu.lsq0.loadToUse::samples               5646                       # Distribution of cycle latency between the first time a load is issued and its completion (Unspecified)
system.cpu.lsq0.loadToUse::mean             16.618314                       # Distribution of cycle latency between the first time a load is issued and its completion (Unspecified)
system.cpu.lsq0.loadToUse::stdev            28.912514                       # Distribution of cycle latency between the first time a load is issued and its completion (Unspecified)
system.cpu.lsq0.loadToUse::0-9                   4330     76.69%     76.69% # Distribution of cycle latency between the first time a load is issued and its completion (Unspecified)
system.cpu.lsq0.loadToUse::10-19                   10      0.18%     76.87% # Distribution of cycle latency between the first time a load is issued and its completion (Unspecified)
system.cpu.lsq0.loadToUse::20-29                    8      0.14%     77.01% # Distribution of cycle latency between the first time a load is issued and its completion (Unspecified)
system.cpu.lsq0.loadToUse::30-39                  369      6.54%     83.55% # Distribution of cycle latency between the first time a load is issued and its completion (Unspecified)
system.cpu.lsq0.loadToUse::40-49                    5      0.09%     83.63% # Distribution of cycle latency between the first time a load is issued and its completion (Unspecified)
system.cpu.lsq0.loadToUse::50-59                   70      1.24%     84.87% # Distribution of cycle latency between the first time a load is issued and its completion (Unspecified)
system.cpu.lsq0.loadToUse::60-69                    8      0.14%     85.02% # Distribution of cycle latency between the first time a load is issued and its completion (Unspecified)
system.cpu.lsq0.loadToUse::70-79                  710     12.58%     97.59% # Distribution of cycle latency between the first time a load is issued and its completion (Unspecified)
system.cpu.lsq0.loadToUse::80-89                    7      0.12%     97.72% # Distribution of cycle latency between the first time a load is issued and its completion (Unspecified)
system.cpu.lsq0.loadToUse::90-99                   21      0.37%     98.09% # Distribution of cycle latency between the first time a load is issued and its completion (Unspecified)
system.cpu.lsq0.loadToUse::100-109                 22      0.39%     98.48% # Distribution of cycle latency between the first time a load is issued and its completion (Unspecified)
system.cpu.lsq0.loadToUse::110-119                 24      0.43%     98.90% # Distribution of cycle latency between the first time a load is issued and its completion (Unspecified)
system.cpu.lsq0.loadToUse::120-129                 40      0.71%     99.61% # Distribution of cycle latency between the first time a load is issued and its completion (Unspecified)
system.cpu.lsq0.loadToUse::130-139                  3      0.05%     99.66% # Distribution of cycle latency between the first time a load is issued and its completion (Unspecified)
system.cpu.lsq0.loadToUse::160-169                  4      0.07%     99.73% # Distribution of cycle latency between the first time a load is issued and its completion (Unspecified)
system.cpu.lsq0.loadToUse::170-179                 10      0.18%     99.91% # Distribution of cycle latency between the first time a load is issued and its completion (Unspecified)
system.cpu.lsq0.loadToUse::200-209                  5      0.09%    100.00% # Distribution of cycle latency between the first time a load is issued and its completion (Unspecified)
system.cpu.lsq0.loadToUse::min_value                2                       # Distribution of cycle latency between the first time a load is issued and its completion (Unspecified)
system.cpu.lsq0.loadToUse::max_value              209                       # Distribution of cycle latency between the first time a load is issued and its completion (Unspecified)
system.cpu.lsq0.loadToUse::total                 5646                       # Distribution of cycle latency between the first time a load is issued and its completion (Unspecified)
system.cpu.mmu.dtb.rdAccesses                    6763                       # TLB accesses on read requests (Count)
system.cpu.mmu.dtb.wrAccesses                    6270                       # TLB accesses on write requests (Count)
system.cpu.mmu.dtb.rdMisses                        90                       # TLB misses on read requests (Count)
system.cpu.mmu.dtb.wrMisses                        40                       # TLB misses on write requests (Count)
system.cpu.mmu.dtb.walker.power_state.pwrStateResidencyTicks::UNDEFINED    279110000                       # Cumulative time (in ticks) in various power states (Tick)
system.cpu.mmu.itb.rdAccesses                       0                       # TLB accesses on read requests (Count)
system.cpu.mmu.itb.wrAccesses                   10807                       # TLB accesses on write requests (Count)
system.cpu.mmu.itb.rdMisses                         0                       # TLB misses on read requests (Count)
system.cpu.mmu.itb.wrMisses                       177                       # TLB misses on write requests (Count)
system.cpu.mmu.itb.walker.power_state.pwrStateResidencyTicks::UNDEFINED    279110000                       # Cumulative time (in ticks) in various power states (Tick)
system.cpu.power_state.pwrStateResidencyTicks::ON    279110000                       # Cumulative time (in ticks) in various power states (Tick)
system.cpu.rename.squashCycles                    604                       # Number of cycles rename is squashing (Cycle)
system.cpu.rename.idleCycles                    25556                       # Number of cycles rename is idle (Cycle)
system.cpu.rename.blockCycles                   17653                       # Number of cycles rename is blocking (Cycle)
system.cpu.rename.serializeStallCycles             35                       # count of cycles rename stalled for serializing inst (Cycle)
system.cpu.rename.runCycles                     17405                       # Number of cycles rename is running (Cycle)
system.cpu.rename.unblockCycles                197194                       # Number of cycles rename is unblocking (Cycle)
system.cpu.rename.renamedInsts                 162276                       # Number of instructions processed by rename (Count)
system.cpu.rename.ROBFullEvents                    14                       # Number of times rename has blocked due to ROB full (Count)
system.cpu.rename.IQFullEvents                   5836                       # Number of times rename has blocked due to IQ full (Count)
system.cpu.rename.LQFullEvents                      1                       # Number of times rename has blocked due to LQ full (Count)
[...]
system.victimbus.pktCount_system.cpu.dcache.mem_side_port::system.victimcache.cpu_side_port        16327                       # Packet count per connected requestor and responder (Count)
system.victimbus.pktSize_system.cpu.dcache.mem_side_port::system.victimcache.cpu_side_port       688960                       # Cumulative packet size per connected requestor and responder (Byte)
system.victimbus.snoops                          9773                       # Total snoops (Count)
system.victimbus.snoopTraffic                  625472                       # Total snoop traffic (Byte)
system.victimbus.snoopFanout::samples           15305                       # Request fanout histogram (Count)
system.victimbus.snoopFanout::mean           0.326364                       # Request fanout histogram (Count)
system.victimbus.snoopFanout::stdev          0.468898                       # Request fanout histogram (Count)
system.victimbus.snoopFanout::underflows            0      0.00%      0.00% # Request fanout histogram (Count)
system.victimbus.snoopFanout::0                 10310     67.36%     67.36% # Request fanout histogram (Count)
system.victimbus.snoopFanout::1                  4995     32.64%    100.00% # Request fanout histogram (Count)
system.victimbus.snoopFanout::overflows             0      0.00%    100.00% # Request fanout histogram (Count)
system.victimbus.snoopFanout::min_value             0                       # Request fanout histogram (Count)
system.victimbus.snoopFanout::max_value             1                       # Request fanout histogram (Count)
system.victimbus.snoopFanout::total             15305                       # Request fanout histogram (Count)
system.victimbus.power_state.pwrStateResidencyTicks::UNDEFINED    279110000                       # Cumulative time (in ticks) in various power states (Tick)
system.victimbus.reqLayer0.occupancy         16058000                       # Layer occupancy (ticks) (Tick)
system.victimbus.reqLayer0.utilization            0.1                       # Layer utilization (Ratio)
system.victimbus.respLayer0.occupancy        16544484                       # Layer occupancy (ticks) (Tick)
system.victimbus.respLayer0.utilization           0.1                       # Layer utilization (Ratio)
system.victimbus.snoop_filter.totRequests        10795                       # Total number of requests made to the snoop filter. (Count)
system.victimbus.snoop_filter.hitSingleRequests         5293                       # Number of requests hitting in the snoop filter with a single holder of the requested data. (Count)
system.victimbus.snoop_filter.hitMultiRequests            0                       # Number of requests hitting in the snoop filter with multiple (>1) holders of the requested data. (Count)
system.victimbus.snoop_filter.totSnoops          4995                       # Total number of snoops made to the snoop filter. (Count)
system.victimbus.snoop_filter.hitSingleSnoops         4995                       # Number of snoops hitting in the snoop filter with a single holder of the requested data. (Count)
system.victimbus.snoop_filter.hitMultiSnoops            0                       # Number of snoops hitting in the snoop filter with multiple (>1) holders of the requested data. (Count)
system.victimcache.demandHits::cpu.data           507                       # number of demand (read+write) hits (Count)
system.victimcache.demandHits::total              507                       # number of demand (read+write) hits (Count)
system.victimcache.overallHits::cpu.data          507                       # number of overall hits (Count)
system.victimcache.overallHits::total             507                       # number of overall hits (Count)
system.victimcache.demandMisses::cpu.data         4995                       # number of demand (read+write) misses (Count)
system.victimcache.demandMisses::total           4995                       # number of demand (read+write) misses (Count)
system.victimcache.overallMisses::cpu.data         4995                       # number of overall misses (Count)
system.victimcache.overallMisses::total          4995                       # number of overall misses (Count)
system.victimcache.demandMissLatency::cpu.data    292156000                       # number of demand (read+write) miss ticks (Tick)
system.victimcache.demandMissLatency::total    292156000                       # number of demand (read+write) miss ticks (Tick)
system.victimcache.overallMissLatency::cpu.data    292156000                       # number of overall miss ticks (Tick)
system.victimcache.overallMissLatency::total    292156000                       # number of overall miss ticks (Tick)
system.victimcache.demandAccesses::cpu.data         5502                       # number of demand (read+write) accesses (Count)
system.victimcache.demandAccesses::total         5502                       # number of demand (read+write) accesses (Count)
system.victimcache.overallAccesses::cpu.data         5502                       # number of overall (read+write) accesses (Count)
system.victimcache.overallAccesses::total         5502                       # number of overall (read+write) accesses (Count)
system.victimcache.demandMissRate::cpu.data     0.907852                       # miss rate for demand accesses (Ratio)
system.victimcache.demandMissRate::total     0.907852                       # miss rate for demand accesses (Ratio)
system.victimcache.overallMissRate::cpu.data     0.907852                       # miss rate for overall accesses (Ratio)
system.victimcache.overallMissRate::total     0.907852                       # miss rate for overall accesses (Ratio)
system.victimcache.demandAvgMissLatency::cpu.data 58489.689690                       # average overall miss latency ((Cycle/Count))
system.victimcache.demandAvgMissLatency::total 58489.689690                       # average overall miss latency ((Cycle/Count))
system.victimcache.overallAvgMissLatency::cpu.data 58489.689690                       # average overall miss latency ((Cycle/Count))
system.victimcache.overallAvgMissLatency::total 58489.689690                       # average overall miss latency ((Cycle/Count))
system.victimcache.blockedCycles::no_mshrs          326                       # number of cycles access was blocked (Cycle)
system.victimcache.blockedCycles::no_targets            0                       # number of cycles access was blocked (Cycle)
system.victimcache.blockedCauses::no_mshrs            9                       # number of times access was blocked (Count)
system.victimcache.blockedCauses::no_targets            0                       # number of times access was blocked (Count)
system.victimcache.avgBlocked::no_mshrs     36.222222                       # average number of cycles each access was blocked ((Cycle/Count))
system.victimcache.avgBlocked::no_targets          nan                       # average number of cycles each access was blocked ((Cycle/Count))
system.victimcache.writebacks::writebacks         9745                       # number of writebacks (Count)
system.victimcache.writebacks::total             9745                       # number of writebacks (Count)
system.victimcache.demandMshrMisses::cpu.data         4995                       # number of demand (read+write) MSHR misses (Count)
system.victimcache.demandMshrMisses::total         4995                       # number of demand (read+write) MSHR misses (Count)
system.victimcache.overallMshrMisses::cpu.data         4995                       # number of overall MSHR misses (Count)
system.victimcache.overallMshrMisses::total         4995                       # number of overall MSHR misses (Count)
system.victimcache.demandMshrMissLatency::cpu.data    292156000                       # number of demand (read+write) MSHR miss ticks (Tick)
system.victimcache.demandMshrMissLatency::total    292156000                       # number of demand (read+write) MSHR miss ticks (Tick)
system.victimcache.overallMshrMissLatency::cpu.data    292156000                       # number of overall MSHR miss ticks (Tick)
system.victimcache.overallMshrMissLatency::total    292156000                       # number of overall MSHR miss ticks (Tick)
system.victimcache.demandMshrMissRate::cpu.data     0.907852                       # mshr miss ratio for demand accesses (Ratio)
system.victimcache.demandMshrMissRate::total     0.907852                       # mshr miss ratio for demand accesses (Ratio)
system.victimcache.overallMshrMissRate::cpu.data     0.907852                       # mshr miss ratio for overall accesses (Ratio)
system.victimcache.overallMshrMissRate::total     0.907852                       # mshr miss ratio for overall accesses (Ratio)
system.victimcache.demandAvgMshrMissLatency::cpu.data 58489.689690                       # average overall mshr miss latency ((Cycle/Count))
system.victimcache.demandAvgMshrMissLatency::total 58489.689690                       # average overall mshr miss latency ((Cycle/Count))
system.victimcache.overallAvgMshrMissLatency::cpu.data 58489.689690                       # average overall mshr miss latency ((Cycle/Count))
system.victimcache.overallAvgMshrMissLatency::total 58489.689690                       # average overall mshr miss latency ((Cycle/Count))
system.victimcache.replacements                  4751                       # number of replacements (Count)
system.victimcache.ReadExReq.hits::cpu.data          306                       # number of ReadExReq hits (Count)
system.victimcache.ReadExReq.hits::total          306                       # number of ReadExReq hits (Count)
system.victimcache.ReadExReq.misses::cpu.data         3736                       # number of ReadExReq misses (Count)
system.victimcache.ReadExReq.misses::total         3736                       # number of ReadExReq misses (Count)
system.victimcache.ReadExReq.missLatency::cpu.data    219599000                       # number of ReadExReq miss ticks (Tick)
system.victimcache.ReadExReq.missLatency::total    219599000                       # number of ReadExReq miss ticks (Tick)
system.victimcache.ReadExReq.accesses::cpu.data         4042                       # number of ReadExReq accesses(hits+misses) (Count)
system.victimcache.ReadExReq.accesses::total         4042                       # number of ReadExReq accesses(hits+misses) (Count)
system.victimcache.ReadExReq.missRate::cpu.data     0.924295                       # miss rate for ReadExReq accesses (Ratio)
system.victimcache.ReadExReq.missRate::total     0.924295                       # miss rate for ReadExReq accesses (Ratio)
system.victimcache.ReadExReq.avgMissLatency::cpu.data 58779.175589                       # average ReadExReq miss latency ((Tick/Count))
system.victimcache.ReadExReq.avgMissLatency::total 58779.175589                       # average ReadExReq miss latency ((Tick/Count))
system.victimcache.ReadExReq.mshrMisses::cpu.data         3736                       # number of ReadExReq MSHR misses (Count)
system.victimcache.ReadExReq.mshrMisses::total         3736                       # number of ReadExReq MSHR misses (Count)
system.victimcache.ReadExReq.mshrMissLatency::cpu.data    219599000                       # number of ReadExReq MSHR miss ticks (Tick)
system.victimcache.ReadExReq.mshrMissLatency::total    219599000                       # number of ReadExReq MSHR miss ticks (Tick)
system.victimcache.ReadExReq.mshrMissRate::cpu.data     0.924295                       # mshr miss rate for ReadExReq accesses (Ratio)
system.victimcache.ReadExReq.mshrMissRate::total     0.924295                       # mshr miss rate for ReadExReq accesses (Ratio)
system.victimcache.ReadExReq.avgMshrMissLatency::cpu.data 58779.175589                       # average ReadExReq mshr miss latency ((Tick/Count))
system.victimcache.ReadExReq.avgMshrMissLatency::total 58779.175589                       # average ReadExReq mshr miss latency ((Tick/Count))
system.victimcache.ReadSharedReq.hits::cpu.data          201                       # number of ReadSharedReq hits (Count)
system.victimcache.ReadSharedReq.hits::total          201                       # number of ReadSharedReq hits (Count)
system.victimcache.ReadSharedReq.misses::cpu.data         1259                       # number of ReadSharedReq misses (Count)
system.victimcache.ReadSharedReq.misses::total         1259                       # number of ReadSharedReq misses (Count)
system.victimcache.ReadSharedReq.missLatency::cpu.data     72557000                       # number of ReadSharedReq miss ticks (Tick)
system.victimcache.ReadSharedReq.missLatency::total     72557000                       # number of ReadSharedReq miss ticks (Tick)
system.victimcache.ReadSharedReq.accesses::cpu.data         1460                       # number of ReadSharedReq accesses(hits+misses) (Count)
system.victimcache.ReadSharedReq.accesses::total         1460                       # number of ReadSharedReq accesses(hits+misses) (Count)
system.victimcache.ReadSharedReq.missRate::cpu.data     0.862329                       # miss rate for ReadSharedReq accesses (Ratio)
system.victimcache.ReadSharedReq.missRate::total     0.862329                       # miss rate for ReadSharedReq accesses (Ratio)
system.victimcache.ReadSharedReq.avgMissLatency::cpu.data 57630.659253                       # average ReadSharedReq miss latency ((Tick/Count))
system.victimcache.ReadSharedReq.avgMissLatency::total 57630.659253                       # average ReadSharedReq miss latency ((Tick/Count))
system.victimcache.ReadSharedReq.mshrMisses::cpu.data         1259                       # number of ReadSharedReq MSHR misses (Count)
system.victimcache.ReadSharedReq.mshrMisses::total         1259                       # number of ReadSharedReq MSHR misses (Count)
system.victimcache.ReadSharedReq.mshrMissLatency::cpu.data     72557000                       # number of ReadSharedReq MSHR miss ticks (Tick)
system.victimcache.ReadSharedReq.mshrMissLatency::total     72557000                       # number of ReadSharedReq MSHR miss ticks (Tick)
system.victimcache.ReadSharedReq.mshrMissRate::cpu.data     0.862329                       # mshr miss rate for ReadSharedReq accesses (Ratio)
system.victimcache.ReadSharedReq.mshrMissRate::total     0.862329                       # mshr miss rate for ReadSharedReq accesses (Ratio)
system.victimcache.ReadSharedReq.avgMshrMissLatency::cpu.data 57630.659253                       # average ReadSharedReq mshr miss latency ((Tick/Count))
system.victimcache.ReadSharedReq.avgMshrMissLatency::total 57630.659253                       # average ReadSharedReq mshr miss latency ((Tick/Count))
system.victimcache.UpgradeReq.misses::cpu.data           30                       # number of UpgradeReq misses (Count)
system.victimcache.UpgradeReq.misses::total           30                       # number of UpgradeReq misses (Count)
system.victimcache.UpgradeReq.accesses::cpu.data           30                       # number of UpgradeReq accesses(hits+misses) (Count)
system.victimcache.UpgradeReq.accesses::total           30                       # number of UpgradeReq accesses(hits+misses) (Count)
system.victimcache.UpgradeReq.missRate::cpu.data            1                       # miss rate for UpgradeReq accesses (Ratio)
system.victimcache.UpgradeReq.missRate::total            1                       # miss rate for UpgradeReq accesses (Ratio)
system.victimcache.UpgradeReq.mshrMisses::cpu.data           30                       # number of UpgradeReq MSHR misses (Count)
system.victimcache.UpgradeReq.mshrMisses::total           30                       # number of UpgradeReq MSHR misses (Count)
system.victimcache.UpgradeReq.mshrMissLatency::cpu.data      1588000                       # number of UpgradeReq MSHR miss ticks (Tick)
system.victimcache.UpgradeReq.mshrMissLatency::total      1588000                       # number of UpgradeReq MSHR miss ticks (Tick)
system.victimcache.UpgradeReq.mshrMissRate::cpu.data            1                       # mshr miss rate for UpgradeReq accesses (Ratio)
system.victimcache.UpgradeReq.mshrMissRate::total            1                       # mshr miss rate for UpgradeReq accesses (Ratio)
system.victimcache.UpgradeReq.avgMshrMissLatency::cpu.data 52933.333333                       # average UpgradeReq mshr miss latency ((Tick/Count))
system.victimcache.UpgradeReq.avgMshrMissLatency::total 52933.333333                       # average UpgradeReq mshr miss latency ((Tick/Count))
system.victimcache.WritebackClean.hits::writebacks         1210                       # number of WritebackClean hits (Count)
system.victimcache.WritebackClean.hits::total         1210                       # number of WritebackClean hits (Count)
system.victimcache.WritebackClean.accesses::writebacks         1210                       # number of WritebackClean accesses(hits+misses) (Count)
system.victimcache.WritebackClean.accesses::total         1210                       # number of WritebackClean accesses(hits+misses) (Count)
system.victimcache.WritebackDirty.hits::writebacks         4053                       # number of WritebackDirty hits (Count)
system.victimcache.WritebackDirty.hits::total         4053                       # number of WritebackDirty hits (Count)
system.victimcache.WritebackDirty.accesses::writebacks         4053                       # number of WritebackDirty accesses(hits+misses) (Count)
system.victimcache.WritebackDirty.accesses::total         4053                       # number of WritebackDirty accesses(hits+misses) (Count)
system.victimcache.power_state.pwrStateResidencyTicks::UNDEFINED    279110000                       # Cumulative time (in ticks) in various power states (Tick)
system.victimcache.tags.tagsInUse            3.296793                       # Average ticks per tags in use ((Tick/Count))
system.victimcache.tags.totalRefs                5771                       # Total number of references to valid blocks. (Count)
system.victimcache.tags.sampledRefs              5262                       # Sample count of references to valid blocks. (Count)
system.victimcache.tags.avgRefs              1.096731                       # Average number of references to valid blocks. ((Count/Count))
system.victimcache.tags.warmupTick           48601000                       # The tick when the warmup percentage was hit. (Tick)
system.victimcache.tags.occupancies::writebacks     3.296793                       # Average occupied blocks per tick, per requestor ((Count/Tick))
system.victimcache.tags.avgOccs::writebacks     0.824198                       # Average percentage of cache occupancy ((Ratio/Tick))
system.victimcache.tags.avgOccs::total       0.824198                       # Average percentage of cache occupancy ((Ratio/Tick))
system.victimcache.tags.occupanciesTaskId::1024            4                       # Occupied blocks per task id (Count)
system.victimcache.tags.ageTaskId_1024::0            4                       # Occupied blocks per task id, per block age (Count)
system.victimcache.tags.ratioOccsTaskId::1024            1                       # Ratio of occupied blocks and all blocks, per task id (Ratio)
system.victimcache.tags.tagAccesses             48442                       # Number of tag accesses (Count)
system.victimcache.tags.dataAccesses            48442                       # Number of data accesses (Count)
system.victimcache.tags.power_state.pwrStateResidencyTicks::UNDEFINED    279110000                       # Cumulative time (in ticks) in various power states (Tick)
system.workload.inst.arm                            0                       # number of arm instructions executed (Count)
system.workload.inst.quiesce                        0                       # number of quiesce instructions executed (Count)

---------- End Simulation Statistics   ----------
