
---------- Begin Simulation Statistics ----------
simSeconds                                   0.000289                       # Number of seconds simulated (Second)
simTicks                                    288965000                       # Number of ticks simulated (Tick)
finalTick                                   288965000                       # Number of ticks from beginning of simulation (restored from checkpoints and never reset) (Tick)
simFreq                                  1000000000000                       # The number of ticks per simulated second ((Tick/Second))
hostSeconds                                      0.68                       # Real time elapsed on the host (Second)
hostTickRate                                425798157                       # The number of ticks simulated per host second (ticks/s) ((Tick/Second))
hostMemory                                     645996                       # Number of bytes of host memory used (Byte)
simInsts                                        94410                       # Number of instructions simulated (Count)
simOps                                         147359                       # Number of ops (including micro ops) simulated (Count)
hostInstRate                                   139095                       # Simulator instruction rate (inst/s) ((Count/Second))
hostOpRate                                     217102                       # Simulator op (including micro ops) rate (op/s) ((Count/Second))
system.clk_domain.clock                          1000                       # Clock period in ticks (Tick)
system.clk_domain.voltage_domain.voltage            1                       # Voltage in Volts (Volt)
system.cpu.numCycles                           288966                       # Number of cpu cycles simulated (Cycle)
system.cpu.numWorkItemsStarted                      0                       # Number of work items this cpu started (Count)
system.cpu.numWorkItemsCompleted                    0                       # Number of work items this cpu completed (Count)
system.cpu.instsAdded                          160028                       # Number of instructions added to the IQ (excludes non-spec) (Count)
system.cpu.nonSpecInstsAdded                        1                       # Number of non-speculative instructions added to the IQ (Count)
system.cpu.instsIssued                         157075                       # Number of instructions issued (Count)
system.cpu.squashedInstsIssued                     42                       # Number of squashed instructions issued (Count)
system.cpu.squashedInstsExamined                12656                       # Number of squashed instructions iterated over during squash; mainly for profiling (Count)
system.cpu.squashedOperandsExamined             14573                       # Number of squashed operands that are examined and possibly removed from graph (Count)
system.cpu.squashedNonSpecRemoved                   1                       # Number of squashed non-spec instructions that were removed (Count)
system.cpu.numIssuedDist::samples              267956                       # Number of insts issued each cycle (Count)
system.cpu.numIssuedDist::mean               0.586197                       # Number of insts issued each cycle (Count)
system.cpu.numIssuedDist::stdev              1.170396                       # Number of insts issued each cycle (Count)
system.cpu.numIssuedDist::underflows                0      0.00%      0.00% # Number of insts issued each cycle (Count)
system.cpu.numIssuedDist::0                    185939     69.39%     69.39% # Number of insts issued each cycle (Count)
system.cpu.numIssuedDist::1                     46443     17.33%     86.72% # Number of insts issued each cycle (Count)
system.cpu.numIssuedDist::2                     15369      5.74%     92.46% # Number of insts issued each cycle (Count)
system.cpu.numIssuedDist::3                     11637      4.34%     96.80% # Number of insts issued each cycle (Count)
system.cpu.numIssuedDist::4                      3001      1.12%     97.92% # Number of insts issued each cycle (Count)
system.cpu.numIssuedDist::5                      1491      0.56%     98.48% # Number of insts issued each cycle (Count)
system.cpu.numIssuedDist::6                      3291      1.23%     99.71% # Number of insts issued each cycle (Count)
system.cpu.numIssuedDist::7                       502      0.19%     99.89% # Number of insts issued each cycle (Count)
system.cpu.numIssuedDist::8                       283      0.11%    100.00% # Number of insts issued each cycle (Count)
system.cpu.numIssuedDist::overflows                 0      0.00%    100.00% # Number of insts issued each cycle (Count)
system.cpu.numIssuedDist::min_value                 0                       # Number of insts issued each cycle (Count)
system.cpu.numIssuedDist::max_value                 8                       # Number of insts issued each cycle (Count)
system.cpu.numIssuedDist::total                267956                       # Number of insts issued each cycle (Count)
system.cpu.statFuBusy::No_OpClass                   0      0.00%      0.00% # attempts to use FU when none available (Count)
system.cpu.statFuBusy::IntAlu                     251     76.99%     76.99% # attempts to use FU when none available (Count)
system.cpu.statFuBusy::IntMult                      0      0.00%     76.99% # attempts to use FU when none available (Count)
system.cpu.statFuBusy::IntDiv                       0      0.00%     76.99% # attempts to use FU when none available (Count)
system.cpu.statFuBusy::FloatAdd                     0      0.00%     76.99% # attempts to use FU when none available (Count)
system.cpu.statFuBusy::FloatCmp                     0      0.00%     76.99% # attempts to use FU when none available (Count)
system.cpu.statFuBusy::FloatCvt                     0      0.00%     76.99% # attempts to use FU when none available (Count)
system.cpu.statFuBusy::FloatMult                    0      0.00%     76.99% # attempts to use FU when none available (Count)
system.cpu.statFuBusy::FloatMultAcc                 0      0.00%     76.99% # attempts to use FU when none available (Count)
system.cpu.statFuBusy::FloatDiv                     0      0.00%     76.99% # attempts to use FU when none available (Count)
system.cpu.statFuBusy::FloatMisc                    0      0.00%     76.99% # attempts to use FU when none available (Count)
system.cpu.statFuBusy::FloatSqrt                    0      0.00%     76.99% # attempts to use FU when none available (Count)
system.cpu.statFuBusy::SimdAdd                      0      0.00%     76.99% # attempts to use FU when none available (Count)
system.cpu.statFuBusy::SimdAddAcc                   0      0.00%     76.99% # attempts to use FU when none available (Count)
system.cpu.statFuBusy::SimdAlu                     11      3.37%     80.37% # attempts to use FU when none available (Count)
system.cpu.statFuBusy::SimdCmp                      0      0.00%     80.37% # attempts to use FU when none available (Count)
system.cpu.statFuBusy::SimdCvt                      1      0.31%     80.67% # attempts to use FU when none available (Count)
system.cpu.statFuBusy::SimdMisc                     2      0.61%     81.29% # attempts to use FU when none available (Count)
system.cpu.statFuBusy::SimdMult                     0      0.00%     81.29% # attempts to use FU when none available (Count)
system.cpu.statFuBusy::SimdMultAcc                  0      0.00%     81.29% # attempts to use FU when none available (Count)
system.cpu.statFuBusy::SimdShift                    0      0.00%     81.29% # attempts to use FU when none available (Count)
system.cpu.statFuBusy::SimdShiftAcc                 0      0.00%     81.29% # attempts to use FU when none available (Count)
system.cpu.statFuBusy::SimdDiv                      0      0.00%     81.29% # attempts to use FU when none available (Count)
system.cpu.statFuBusy::SimdSqrt                     0      0.00%     81.29% # attempts to use FU when none available (Count)
system.cpu.statFuBusy::SimdFloatAdd                 0      0.00%     81.29% # attempts to use FU when none available (Count)
system.cpu.statFuBusy::SimdFloatAlu                 0      0.00%     81.29% # attempts to use FU when none available (Count)
system.cpu.statFuBusy::SimdFloatCmp                 0      0.00%     81.29% # attempts to use FU when none available (Count)
system.cpu.statFuBusy::SimdFloatCvt                 0      0.00%     81.29% # attempts to use FU when none available (Count)
system.cpu.statFuBusy::SimdFloatDiv                 0      0.00%     81.29% # attempts to use FU when none available (Count)
system.cpu.statFuBusy::SimdFloatMisc                0      0.00%     81.29% # attempts to use FU when none available (Count)
system.cpu.statFuBusy::SimdFloatMult                0      0.00%     81.29% # attempts to use FU when none available (Count)
system.cpu.statFuBusy::SimdFloatMultAcc             0      0.00%     81.29% # attempts to use FU when none available (Count)
system.cpu.statFuBusy::SimdFloatSqrt                0      0.00%     81.29% # attempts to use FU when none available (Count)
system.cpu.statFuBusy::SimdReduceAdd                0      0.00%     81.29% # attempts to use FU when none available (Count)
system.cpu.statFuBusy::SimdReduceAlu                0      0.00%     81.29% # attempts to use FU when none available (Count)
system.cpu.statFuBusy::SimdReduceCmp                0      0.00%     81.29% # attempts to use FU when none available (Count)
system.cpu.statFuBusy::SimdFloatReduceAdd            0      0.00%     81.29% # attempts to use FU when none available (Count)
system.cpu.statFuBusy::SimdFloatReduceCmp            0      0.00%     81.29% # attempts to use FU when none available (Count)
system.cpu.statFuBusy::SimdAes                      0      0.00%     81.29% # attempts to use FU when none available (Count)
system.cpu.statFuBusy::SimdAesMix                   0      0.00%     81.29% # attempts to use FU when none available (Count)
system.cpu.statFuBusy::SimdSha1Hash                 0      0.00%     81.29% # attempts to use FU when none available (Count)
system.cpu.statFuBusy::SimdSha1Hash2                0      0.00%     81.29% # attempts to use FU when none available (Count)
system.cpu.statFuBusy::SimdSha256Hash               0      0.00%     81.29% # attempts to use FU when none available (Count)
system.cpu.statFuBusy::SimdSha256Hash2              0      0.00%     81.29% # attempts to use FU when none available (Count)
system.cpu.statFuBusy::SimdShaSigma2                0      0.00%     81.29% # attempts to use FU when none available (Count)
system.cpu.statFuBusy::SimdShaSigma3                0      0.00%     81.29% # attempts to use FU when none available (Count)
system.cpu.statFuBusy::SimdPredAlu                  0      0.00%     81.29% # attempts to use FU when none available (Count)
system.cpu.statFuBusy::MemRead                     27      8.28%     89.57% # attempts to use FU when none available (Count)
system.cpu.statFuBusy::MemWrite                    19      5.83%     95.40% # attempts to use FU when none available (Count)
system.cpu.statFuBusy::FloatMemRead                 5      1.53%     96.93% # attempts to use FU when none available (Count)
system.cpu.statFuBusy::FloatMemWrite               10      3.07%    100.00% # attempts to use FU when none available (Count)
system.cpu.statFuBusy::IprAccess                    0      0.00%    100.00% # attempts to use FU when none available (Count)
system.cpu.statFuBusy::InstPrefetch                 0      0.00%    100.00% # attempts to use FU when none available (Count)
system.cpu.statIssuedInstType_0::No_OpClass          662      0.42%      0.42% # Number of instructions issued per FU type, per thread (Count)
system.cpu.statIssuedInstType_0::IntAlu        142454     90.69%     91.11% # Number of instructions issued per FU type, per thread (Count)
system.cpu.statIssuedInstType_0::IntMult            6      0.00%     91.12% # Number of instructions issued per FU type, per thread (Count)
system.cpu.statIssuedInstType_0::IntDiv            29      0.02%     91.14% # Number of instructions issued per FU type, per thread (Count)
system.cpu.statIssuedInstType_0::FloatAdd          136      0.09%     91.22% # Number of instructions issued per FU type, per thread (Count)
system.cpu.statIssuedInstType_0::FloatCmp            0      0.00%     91.22% # Number of instructions issued per FU type, per thread (Count)
system.cpu.statIssuedInstType_0::FloatCvt            0      0.00%     91.22% # Number of instructions issued per FU type, per thread (Count)
system.cpu.statIssuedInstType_0::FloatMult            0      0.00%     91.22% # Number of instructions issued per FU type, per thread (Count)
system.cpu.statIssuedInstType_0::FloatMultAcc            0      0.00%     91.22% # Number of instructions issued per FU type, per thread (Count)
system.cpu.statIssuedInstType_0::FloatDiv            0      0.00%     91.22% # Number of instructions issued per FU type, per thread (Count)
system.cpu.statIssuedInstType_0::FloatMisc            0      0.00%     91.22% # Number of instructions issued per FU type, per thread (Count)
system.cpu.statIssuedInstType_0::FloatSqrt            0      0.00%     91.22% # Number of instructions issued per FU type, per thread (Count)
system.cpu.statIssuedInstType_0::SimdAdd            0      0.00%     91.22% # Number of instructions issued per FU type, per thread (Count)
system.cpu.statIssuedInstType_0::SimdAddAcc            0      0.00%     91.22% # Number of instructions issued per FU type, per thread (Count)
system.cpu.statIssuedInstType_0::SimdAlu          156      0.10%     91.32% # Number of instructions issued per FU type, per thread (Count)
system.cpu.statIssuedInstType_0::SimdCmp            0      0.00%     91.32% # Number of instructions issued per FU type, per thread (Count)
system.cpu.statIssuedInstType_0::SimdCvt           48      0.03%     91.35% # Number of instructions issued per FU type, per thread (Count)
system.cpu.statIssuedInstType_0::SimdMisc          218      0.14%     91.49% # Number of instructions issued per FU type, per thread (Count)
system.cpu.statIssuedInstType_0::SimdMult            0      0.00%     91.49% # Number of instructions issued per FU type, per thread (Count)
system.cpu.statIssuedInstType_0::SimdMultAcc            0      0.00%     91.49% # Number of instructions issued per FU type, per thread (Count)
system.cpu.statIssuedInstType_0::SimdShift            0      0.00%     91.49% # Number of instructions issued per FU type, per thread (Count)
system.cpu.statIssuedInstType_0::SimdShiftAcc            0      0.00%     91.49% # Number of instructions issued per FU type, per thread (Count)
system.cpu.statIssuedInstType_0::SimdDiv            0      0.00%     91.49% # Number of instructions issued per FU type, per thread (Count)
system.cpu.statIssuedInstType_0::SimdSqrt            0      0.00%     91.49% # Number of instructions issued per FU type, per thread (Count)
system.cpu.statIssuedInstType_0::SimdFloatAdd            0      0.00%     91.49% # Number of instructions issued per FU type, per thread (Count)
system.cpu.statIssuedInstType_0::SimdFloatAlu            0      0.00%     91.49% # Number of instructions issued per FU type, per thread (Count)
system.cpu.statIssuedInstType_0::SimdFloatCmp            0      0.00%     91.49% # Number of instructions issued per FU type, per thread (Count)
system.cpu.statIssuedInstType_0::SimdFloatCvt            0      0.00%     91.49% # Number of instructions issued per FU type, per thread (Count)
system.cpu.statIssuedInstType_0::SimdFloatDiv            0      0.00%     91.49% # Number of instructions issued per FU type, per thread (Count)
system.cpu.statIssuedInstType_0::SimdFloatMisc            0      0.00%     91.49% # Number of instructions issued per FU type, per thread (Count)
system.cpu.statIssuedInstType_0::SimdFloatMult            0      0.00%     91.49% # Number of instructions issued per FU type, per thread (Count)
system.cpu.statIssuedInstType_0::SimdFloatMultAcc            0      0.00%     91.49% # Number of instructions issued per FU type, per thread (Count)
system.cpu.statIssuedInstType_0::SimdFloatSqrt            0      0.00%     91.49% # Number of instructions issued per FU type, per thread (Count)
system.cpu.statIssuedInstType_0::SimdReduceAdd            0      0.00%     91.49% # Number of instructions issued per FU type, per thread (Count)
system.cpu.statIssuedInstType_0::SimdReduceAlu            0      0.00%     91.49% # Number of instructions issued per FU type, per thread (Count)
system.cpu.statIssuedInstType_0::SimdReduceCmp            0      0.00%     91.49% # Number of instructions issued per FU type, per thread (Count)
system.cpu.statIssuedInstType_0::SimdFloatReduceAdd            0      0.00%     91.49% # Number of instructions issued per FU type, per thread (Count)
system.cpu.statIssuedInstType_0::SimdFloatReduceCmp            0      0.00%     91.49% # Number of instructions issued per FU type, per thread (Count)
system.cpu.statIssuedInstType_0::SimdAes            0      0.00%     91.49% # Number of instructions issued per FU type, per thread (Count)
system.cpu.statIssuedInstType_0::SimdAesMix            0      0.00%     91.49% # Number of instructions issued per FU type, per thread (Count)
system.cpu.statIssuedInstType_0::SimdSha1Hash            0      0.00%     91.49% # Number of instructions issued per FU type, per thread (Count)
system.cpu.statIssuedInstType_0::SimdSha1Hash2            0      0.00%     91.49% # Number of instructions issued per FU type, per thread (Count)
system.cpu.statIssuedInstType_0::SimdSha256Hash            0      0.00%     91.49% # Number of instructions issued per FU type, per thread (Count)
system.cpu.statIssuedInstType_0::SimdSha256Hash2            0      0.00%     91.49% # Number of instructions issued per FU type, per thread (Count)
system.cpu.statIssuedInstType_0::SimdShaSigma2            0      0.00%     91.49% # Number of instructions issued per FU type, per thread (Count)
system.cpu.statIssuedInstType_0::SimdShaSigma3            0      0.00%     91.49% # Number of instructions issued per FU type, per thread (Count)
system.cpu.statIssuedInstType_0::SimdPredAlu            0      0.00%     91.49% # Number of instructions issued per FU type, per thread (Count)
system.cpu.statIssuedInstType_0::MemRead         6924      4.41%     95.90% # Number of instructions issued per FU type, per thread (Count)
system.cpu.statIssuedInstType_0::MemWrite         5835      3.71%     99.61% # Number of instructions issued per FU type, per thread (Count)
system.cpu.statIssuedInstType_0::FloatMemRead           78      0.05%     99.66% # Number of instructions issued per FU type, per thread (Count)
system.cpu.statIssuedInstType_0::FloatMemWrite          529      0.34%    100.00% # Number of instructions issued per FU type, per thread (Count)
system.cpu.statIssuedInstType_0::IprAccess            0      0.00%    100.00% # Number of instructions issued per FU type, per thread (Count)
system.cpu.statIssuedInstType_0::InstPrefetch            0      0.00%    100.00% # Number of instructions issued per FU type, per thread (Count)
system.cpu.statIssuedInstType_0::total         157075                       # Number of instructions issued per FU type, per thread (Count)
system.cpu.issueRate                         0.543576                       # Inst issue rate ((Count/Cycle))
system.cpu.fuBusy                                 326                       # FU busy when requested (Count)
system.cpu.fuBusyRate                        0.002075                       # FU busy rate (busy events/executed inst) ((Count/Count))
system.cpu.intInstQueueReads                   579829                       # Number of integer instruction queue reads (Count)
system.cpu.intInstQueueWrites                  171209                       # Number of integer instruction queue writes (Count)
system.cpu.intInstQueueWakeupAccesses          154100                       # Number of integer instruction queue wakeup accesses (Count)
system.cpu.fpInstQueueReads                      2639                       # Number of floating instruction queue reads (Count)
system.cpu.fpInstQueueWrites                     1485                       # Number of floating instruction queue writes (Count)
system.cpu.fpInstQueueWakeupAccesses             1284                       # Number of floating instruction queue wakeup accesses (Count)
system.cpu.vecInstQueueReads                        0                       # Number of vector instruction queue reads (Count)
system.cpu.vecInstQueueWrites                       0                       # Number of vector instruction queue writes (Count)
system.cpu.vecInstQueueWakeupAccesses               0                       # Number of vector instruction queue wakeup accesses (Count)
system.cpu.intAluAccesses                      155405                       # Number of integer alu accesses (Count)
system.cpu.fpAluAccesses                         1334                       # Number of floating point alu accesses (Count)
system.cpu.vecAluAccesses                           0                       # Number of vector alu accesses (Count)
system.cpu.idleCycles                               0                       # Number of cycles IEW is idle (Cycle)
system.cpu.squashCycles                           641                       # Number of cycles IEW is squashing (Cycle)
system.cpu.blockCycles                          12091                       # Number of cycles IEW is blocking (Cycle)
system.cpu.unblockCycles                         1414                       # Number of cycles IEW is unblocking (Cycle)
system.cpu.dispatchedInsts                     160029                       # Number of instructions dispatched to IQ (Count)
system.cpu.dispSquashedInsts                      141                       # Number of squashed instructions skipped by dispatch (Count)
system.cpu.dispLoadInsts                         7235                       # Number of dispatched load instructions (Count)
system.cpu.dispStoreInsts                        6700                       # Number of dispatched store instructions (Count)
system.cpu.dispNonSpecInsts                         1                       # Number of dispatched non-speculative instructions (Count)
system.cpu.iqFullEvents                            47                       # Number of times the IQ has become full, causing a stall (Count)
system.cpu.lsqFullEvents                         1218                       # Number of times the LSQ has become full, causing a stall (Count)
system.cpu.memOrderViolationEvents                 10                       # Number of memory order violations (Count)
system.cpu.predictedTakenIncorrect                 52                       # Number of branches that were predicted taken incorrectly (Count)
system.cpu.predictedNotTakenIncorrect             677                       # Number of branches that were predicted not taken incorrectly (Count)
system.cpu.branchMispredicts                      729                       # Number of branch mispredicts detected at execute (Count)
system.cpu.numInsts                            156157                       # Number of executed instructions (Count)
system.cpu.numLoadInsts                          6847                       # Number of load instructions executed (Count)
system.cpu.numSquashedInsts                       912                       # Number of squashed instructions skipped in execute (Count)
system.cpu.numSwp                                   0                       # Number of swp insts executed (Count)
system.cpu.numNop                                   0                       # Number of nop insts executed (Count)
system.cpu.numRefs                              13117                       # Number of memory reference insts executed (Count)
system.cpu.numBranches                           6517                       # Number of branches executed (Count)
system.cpu.numStoreInsts                         6270                       # Number of stores executed (Count)
system.cpu.numRate                           0.540399                       # Inst execution rate ((Count/Cycle))
system.cpu.instsToCommit                       155818                       # Cumulative count of insts sent to commit (Count)
system.cpu.writebackCount                      155384                       # Cumulative count of insts written-back (Count)
system.cpu.producerInst                        128598                       # Number of instructions producing a value (Count)
system.cpu.consumerInst                        236157                       # Number of instructions consuming a value (Count)
system.cpu.wbRate                            0.537724                       # Insts written-back per cycle ((Count/Cycle))
system.cpu.wbFanout                          0.544545                       # Average fanout of values written-back ((Count/Count))
system.cpu.timesIdled                             297                       # Number of times that the entire CPU went into an idle state and unscheduled itself (Count)
system.cpu.idleCycles                           21010                       # Total number of cycles that the CPU has spent unscheduled due to idling (Cycle)
system.cpu.committedInsts                       94410                       # Number of Instructions Simulated (Count)
system.cpu.committedOps                        147359                       # Number of Ops (including micro ops) Simulated (Count)
system.cpu.cpi                               3.060756                       # CPI: Cycles Per Instruction ((Cycle/Count))
system.cpu.totalCpi                          3.060756                       # CPI: Total CPI of All Threads ((Cycle/Count))
system.cpu.ipc                               0.326717                       # IPC: Instructions Per Cycle ((Count/Cycle))
system.cpu.totalIpc                          0.326717                       # IPC: Total IPC of All Threads ((Count/Cycle))
system.cpu.intRegfileReads                     242605                       # Number of integer regfile reads (Count)
system.cpu.intRegfileWrites                    141638                       # Number of integer regfile writes (Count)
system.cpu.fpRegfileReads                        1527                       # Number of floating regfile reads (Count)
system.cpu.fpRegfileWrites                        717                       # Number of floating regfile writes (Count)
system.cpu.ccRegfileReads                       80639                       # number of cc regfile reads (Count)
system.cpu.ccRegfileWrites                     146502                       # number of cc regfile writes (Count)
system.cpu.miscRegfileReads                     27181                       # number of misc regfile reads (Count)
system.cpu.MemDepUnit__0.insertedLoads           7235                       # Number of loads inserted to the mem dependence unit. (Count)
system.cpu.MemDepUnit__0.insertedStores          6700                       # Number of stores inserted to the mem dependence unit. (Count)
system.cpu.MemDepUnit__0.conflictingLoads           24                       # Number of conflicting loads. (Count)
system.cpu.MemDepUnit__0.conflictingStores            4                       # Number of conflicting stores. (Count)
system.cpu.MemDepUnit__1.insertedLoads              0                       # Number of loads inserted to the mem dependence unit. (Count)
system.cpu.MemDepUnit__1.insertedStores             0                       # Number of stores inserted to the mem dependence unit. (Count)
system.cpu.MemDepUnit__1.conflictingLoads            0                       # Number of conflicting loads. (Count)
system.cpu.MemDepUnit__1.conflictingStores            0                       # Number of conflicting stores. (Count)
system.cpu.MemDepUnit__2.insertedLoads              0                       # Number of loads inserted to the mem dependence unit. (Count)
system.cpu.MemDepUnit__2.insertedStores             0                       # Number of stores inserted to the mem dependence unit. (Count)
system.cpu.MemDepUnit__2.conflictingLoads            0                       # Number of conflicting loads. (Count)
system.cpu.MemDepUnit__2.conflictingStores            0                       # Number of conflicting stores. (Count)
system.cpu.MemDepUnit__3.insertedLoads              0                       # Number of loads inserted to the mem dependence unit. (Count)
system.cpu.MemDepUnit__3.insertedStores             0                       # Number of stores inserted to the mem dependence unit. (Count)
system.cpu.MemDepUnit__3.conflictingLoads            0                       # Number of conflicting loads. (Count)
system.cpu.MemDepUnit__3.conflictingStores            0                       # Number of conflicting stores. (Count)
system.cpu.branchPred.lookups                    8165                       # Number of BP lookups (Count)
system.cpu.branchPred.condPredicted              6967                       # Number of conditional branches predicted (Count)
system.cpu.branchPred.condIncorrect               682                       # Number of conditional branches incorrect (Count)
system.cpu.branchPred.BTBLookups                 5957                       # Number of BTB lookups (Count)
system.cpu.branchPred.BTBHits                    5251                       # Number of BTB hits (Count)
system.cpu.branchPred.BTBHitRatio            0.881484                       # BTB Hit Ratio (Ratio)
system.cpu.branchPred.RASUsed                     282                       # Number of times the RAS was used to get a target. (Count)
system.cpu.branchPred.RASIncorrect                  0                       # Number of incorrect RAS predictions. (Count)
system.cpu.branchPred.indirectLookups             305                       # Number of indirect predictor lookups. (Count)
system.cpu.branchPred.indirectHits                 20                       # Number of indirect target hits. (Count)
system.cpu.branchPred.indirectMisses              285                       # Number of indirect misses. (Count)
system.cpu.branchPred.indirectMispredicted           90                       # Number of mispredicted indirect branches. (Count)
system.cpu.commit.commitSquashedInsts           12500                       # The number of squashed insts skipped by commit (Count)
system.cpu.commit.branchMispredicts               621                       # The number of times a branch was mispredicted (Count)
system.cpu.commit.numCommittedDist::samples       265883                       # Number of insts commited each cycle (Count)
system.cpu.commit.numCommittedDist::mean     0.554225                       # Number of insts commited each cycle (Count)
system.cpu.commit.numCommittedDist::stdev     1.238954                       # Number of insts commited each cycle (Count)
system.cpu.commit.numCommittedDist::underflows            0      0.00%      0.00% # Number of insts commited each cycle (Count)
system.cpu.commit.numCommittedDist::0          191689     72.10%     72.10% # Number of insts commited each cycle (Count)
system.cpu.commit.numCommittedDist::1           40903     15.38%     87.48% # Number of insts commited each cycle (Count)
system.cpu.commit.numCommittedDist::2           17908      6.74%     94.21% # Number of insts commited each cycle (Count)
system.cpu.commit.numCommittedDist::3            7705      2.90%     97.11% # Number of insts commited each cycle (Count)
system.cpu.commit.numCommittedDist::4            1277      0.48%     97.59% # Number of insts commited each cycle (Count)
system.cpu.commit.numCommittedDist::5             331      0.12%     97.72% # Number of insts commited each cycle (Count)
system.cpu.commit.numCommittedDist::6            3852      1.45%     99.17% # Number of insts commited each cycle (Count)
system.cpu.commit.numCommittedDist::7              94      0.04%     99.20% # Number of insts commited each cycle (Count)
system.cpu.commit.numCommittedDist::8            2124      0.80%    100.00% # Number of insts commited each cycle (Count)
system.cpu.commit.numCommittedDist::overflows            0      0.00%    100.00% # Number of insts commited each cycle (Count)
system.cpu.commit.numCommittedDist::min_value            0                       # Number of insts commited each cycle (Count)
system.cpu.commit.numCommittedDist::max_value            8                       # Number of insts commited each cycle (Count)
system.cpu.commit.numCommittedDist::total       265883                       # Number of insts commited each cycle (Count)
system.cpu.commit.instsCommitted                94410                       # Number of instructions committed (Count)
system.cpu.commit.opsCommitted                 147359                       # Number of ops (including micro ops) committed (Count)
system.cpu.commit.memRefs                       11386                       # Number of memory references committed (Count)
system.cpu.commit.loads                          5654                       # Number of loads committed (Count)
system.cpu.commit.amos                              0                       # Number of atomic instructions committed (Count)
system.cpu.commit.membars                           0                       # Number of memory barriers committed (Count)
system.cpu.commit.branches                       5839                       # Number of branches committed (Count)
system.cpu.commit.vectorInstructions                0                       # Number of committed Vector instructions. (Count)
system.cpu.commit.floating                       1157                       # Number of committed floating point instructions. (Count)
system.cpu.commit.integer                      146610                       # Number of committed integer instructions. (Count)
system.cpu.commit.functionCalls                   150                       # Number of function calls committed. (Count)
system.cpu.commit.committedInstType_0::No_OpClass          194      0.13%      0.13% # Class of committed instruction (Count)
system.cpu.commit.committedInstType_0::IntAlu       135263     91.79%     91.92% # Class of committed instruction (Count)
system.cpu.commit.committedInstType_0::IntMult            5      0.00%     91.93% # Class of committed instruction (Count)
system.cpu.commit.committedInstType_0::IntDiv           21      0.01%     91.94% # Class of committed instruction (Count)
system.cpu.commit.committedInstType_0::FloatAdd          135      0.09%     92.03% # Class of committed instruction (Count)
system.cpu.commit.committedInstType_0::FloatCmp            0      0.00%     92.03% # Class of committed instruction (Count)
system.cpu.commit.committedInstType_0::FloatCvt            0      0.00%     92.03% # Class of committed instruction (Count)
system.cpu.commit.committedInstType_0::FloatMult            0      0.00%     92.03% # Class of committed instruction (Count)
system.cpu.commit.committedInstType_0::FloatMultAcc            0      0.00%     92.03% # Class of committed instruction (Count)
system.cpu.commit.committedInstType_0::FloatDiv            0      0.00%     92.03% # Class of committed instruction (Count)
system.cpu.commit.committedInstType_0::FloatMisc            0      0.00%     92.03% # Class of committed instruction (Count)
system.cpu.commit.committedInstType_0::FloatSqrt            0      0.00%     92.03% # Class of committed instruction (Count)
system.cpu.commit.committedInstType_0::SimdAdd            0      0.00%     92.03% # Class of committed instruction (Count)
system.cpu.commit.committedInstType_0::SimdAddAcc            0      0.00%     92.03% # Class of committed instruction (Count)
system.cpu.commit.committedInstType_0::SimdAlu           94      0.06%     92.10% # Class of committed instruction (Count)
system.cpu.commit.committedInstType_0::SimdCmp            0      0.00%     92.10% # Class of committed instruction (Count)
system.cpu.commit.committedInstType_0::SimdCvt           46      0.03%     92.13% # Class of committed instruction (Count)
system.cpu.commit.committedInstType_0::SimdMisc          215      0.15%     92.27% # Class of committed instruction (Count)
system.cpu.commit.committedInstType_0::SimdMult            0      0.00%     92.27% # Class of committed instruction (Count)
system.cpu.commit.committedInstType_0::SimdMultAcc            0      0.00%     92.27% # Class of committed instruction (Count)
system.cpu.commit.committedInstType_0::SimdShift            0      0.00%     92.27% # Class of committed instruction (Count)
system.cpu.commit.committedInstType_0::SimdShiftAcc            0      0.00%     92.27% # Class of committed instruction (Count)
system.cpu.commit.committedInstType_0::SimdDiv            0      0.00%     92.27% # Class of committed instruction (Count)
system.cpu.commit.committedInstType_0::SimdSqrt            0      0.00%     92.27% # Class of committed instruction (Count)
system.cpu.commit.committedInstType_0::SimdFloatAdd            0      0.00%     92.27% # Class of committed instruction (Count)
system.cpu.commit.committedInstType_0::SimdFloatAlu            0      0.00%     92.27% # Class of committed instruction (Count)
system.cpu.commit.committedInstType_0::SimdFloatCmp            0      0.00%     92.27% # Class of committed instruction (Count)
system.cpu.commit.committedInstType_0::SimdFloatCvt            0      0.00%     92.27% # Class of committed instruction (Count)
system.cpu.commit.committedInstType_0::SimdFloatDiv            0      0.00%     92.27% # Class of committed instruction (Count)
system.cpu.commit.committedInstType_0::SimdFloatMisc            0      0.00%     92.27% # Class of committed instruction (Count)
system.cpu.commit.committedInstType_0::SimdFloatMult            0      0.00%     92.27% # Class of committed instruction (Count)
system.cpu.commit.committedInstType_0::SimdFloatMultAcc            0      0.00%     92.27% # Class of committed instruction (Count)
system.cpu.commit.committedInstType_0::SimdFloatSqrt            0      0.00%     92.27% # Class of committed instruction (Count)
system.cpu.commit.committedInstType_0::SimdReduceAdd            0      0.00%     92.27% # Class of committed instruction (Count)
system.cpu.commit.committedInstType_0::SimdReduceAlu            0      0.00%     92.27% # Class of committed instruction (Count)
system.cpu.commit.committedInstType_0::SimdReduceCmp            0      0.00%     92.27% # Class of committed instruction (Count)
system.cpu.commit.committedInstType_0::SimdFloatReduceAdd            0      0.00%     92.27% # Class of committed instruction (Count)
system.cpu.commit.committedInstType_0::SimdFloatReduceCmp            0      0.00%     92.27% # Class of committed instruction (Count)
system.cpu.commit.committedInstType_0::SimdAes            0      0.00%     92.27% # Class of committed instruction (Count)
system.cpu.commit.committedInstType_0::SimdAesMix            0      0.00%     92.27% # Class of committed instruction (Count)
system.cpu.commit.committedInstType_0::SimdSha1Hash            0      0.00%     92.27% # Class of committed instruction (Count)
system.cpu.commit.committedInstType_0::SimdSha1Hash2            0      0.00%     92.27% # Class of committed instruction (Count)
system.cpu.commit.committedInstType_0::SimdSha256Hash            0      0.00%     92.27% # Class of committed instruction (Count)
system.cpu.commit.committedInstType_0::SimdSha256Hash2            0      0.00%     92.27% # Class of committed instruction (Count)
system.cpu.commit.committedInstType_0::SimdShaSigma2            0      0.00%     92.27% # Class of committed instruction (Count)
system.cpu.commit.committedInstType_0::SimdShaSigma3            0      0.00%     92.27% # Class of committed instruction (Count)
system.cpu.commit.committedInstType_0::SimdPredAlu            0      0.00%     92.27% # Class of committed instruction (Count)
system.cpu.commit.committedInstType_0::MemRead         5592      3.79%     96.07% # Class of committed instruction (Count)
system.cpu.commit.committedInstType_0::MemWrite         5266      3.57%     99.64% # Class of committed instruction (Count)
system.cpu.commit.committedInstType_0::FloatMemRead           62      0.04%     99.68% # Class of committed instruction (Count)
system.cpu.commit.committedInstType_0::FloatMemWrite          466      0.32%    100.00% # Class of committed instruction (Count)
system.cpu.commit.committedInstType_0::IprAccess            0      0.00%    100.00% # Class of committed instruction (Count)
system.cpu.commit.committedInstType_0::InstPrefetch            0      0.00%    100.00% # Class of committed instruction (Count)
system.cpu.commit.committedInstType_0::total       147359                       # Class of committed instruction (Count)
system.cpu.commit.commitEligibleSamples          2124                       # number cycles where commit BW limit reached (Cycle)
system.cpu.dcache.demandHits::cpu.data           4003                       # number of demand (read+write) hits (Count)
system.cpu.dcache.demandHits::total              4003                       # number of demand (read+write) hits (Count)
system.cpu.dcache.overallHits::cpu.data          4003                       # number of overall hits (Count)
system.cpu.dcache.overallHits::total             4003                       # number of overall hits (Count)
system.cpu.dcache.demandMisses::cpu.data         5695                       # number of demand (read+write) misses (Count)
system.cpu.dcache.demandMisses::total            5695                       # number of demand (read+write) misses (Count)
system.cpu.dcache.overallMisses::cpu.data         5695                       # number of overall misses (Count)
system.cpu.dcache.overallMisses::total           5695                       # number of overall misses (Count)
system.cpu.dcache.demandMissLatency::cpu.data    347459000                       # number of demand (read+write) miss ticks (Tick)
system.cpu.dcache.demandMissLatency::total    347459000                       # number of demand (read+write) miss ticks (Tick)
system.cpu.dcache.overallMissLatency::cpu.data    347459000                       # number of overall miss ticks (Tick)
system.cpu.dcache.overallMissLatency::total    347459000                       # number of overall miss ticks (Tick)
system.cpu.dcache.demandAccesses::cpu.data         9698                       # number of demand (read+write) accesses (Count)
system.cpu.dcache.demandAccesses::total          9698                       # number of demand (read+write) accesses (Count)
system.cpu.dcache.overallAccesses::cpu.data         9698                       # number of overall (read+write) accesses (Count)
system.cpu.dcache.overallAccesses::total         9698                       # number of overall (read+write) accesses (Count)
system.cpu.dcache.demandMissRate::cpu.data     0.587234                       # miss rate for demand accesses (Ratio)
system.cpu.dcache.demandMissRate::total      0.587234                       # miss rate for demand accesses (Ratio)
system.cpu.dcache.overallMissRate::cpu.data     0.587234                       # miss rate for overall accesses (Ratio)
system.cpu.dcache.overallMissRate::total     0.587234                       # miss rate for overall accesses (Ratio)
system.cpu.dcache.demandAvgMissLatency::cpu.data 61011.237928                       # average overall miss latency ((Cycle/Count))
system.cpu.dcache.demandAvgMissLatency::total 61011.237928                       # average overall miss latency ((Cycle/Count))
system.cpu.dcache.overallAvgMissLatency::cpu.data 61011.237928                       # average overall miss latency ((Cycle/Count))
system.cpu.dcache.overallAvgMissLatency::total 61011.237928                       # average overall miss latency ((Cycle/Count))
system.cpu.dcache.blockedCycles::no_mshrs          318                       # number of cycles access was blocked (Cycle)
system.cpu.dcache.blockedCycles::no_targets            0                       # number of cycles access was blocked (Cycle)
system.cpu.dcache.blockedCauses::no_mshrs           11                       # number of times access was blocked (Count)
system.cpu.dcache.blockedCauses::no_targets            0                       # number of times access was blocked (Count)
system.cpu.dcache.avgBlocked::no_mshrs      28.909091                       # average number of cycles each access was blocked ((Cycle/Count))
system.cpu.dcache.avgBlocked::no_targets          nan                       # average number of cycles each access was blocked ((Cycle/Count))
system.cpu.dcache.writebacks::writebacks         5267                       # number of writebacks (Count)
system.cpu.dcache.writebacks::total              5267                       # number of writebacks (Count)
system.cpu.dcache.demandMshrHits::cpu.data          160                       # number of demand (read+write) MSHR hits (Count)
system.cpu.dcache.demandMshrHits::total           160                       # number of demand (read+write) MSHR hits (Count)
system.cpu.dcache.overallMshrHits::cpu.data          160                       # number of overall MSHR hits (Count)
system.cpu.dcache.overallMshrHits::total          160                       # number of overall MSHR hits (Count)
system.cpu.dcache.demandMshrMisses::cpu.data         5535                       # number of demand (read+write) MSHR misses (Count)
system.cpu.dcache.demandMshrMisses::total         5535                       # number of demand (read+write) MSHR misses (Count)
system.cpu.dcache.overallMshrMisses::cpu.data         5535                       # number of overall MSHR misses (Count)
system.cpu.dcache.overallMshrMisses::total         5535                       # number of overall MSHR misses (Count)
system.cpu.dcache.demandMshrMissLatency::cpu.data    323932000                       # number of demand (read+write) MSHR miss ticks (Tick)
system.cpu.dcache.demandMshrMissLatency::total    323932000                       # number of demand (read+write) MSHR miss ticks (Tick)
system.cpu.dcache.overallMshrMissLatency::cpu.data    323932000                       # number of overall MSHR miss ticks (Tick)
system.cpu.dcache.overallMshrMissLatency::total    323932000                       # number of overall MSHR miss ticks (Tick)
system.cpu.dcache.demandMshrMissRate::cpu.data     0.570736                       # mshr miss ratio for demand accesses (Ratio)
system.cpu.dcache.demandMshrMissRate::total     0.570736                       # mshr miss ratio for demand accesses (Ratio)
system.cpu.dcache.overallMshrMissRate::cpu.data     0.570736                       # mshr miss ratio for overall accesses (Ratio)
system.cpu.dcache.overallMshrMissRate::total     0.570736                       # mshr miss ratio for overall accesses (Ratio)
system.cpu.dcache.demandAvgMshrMissLatency::cpu.data 58524.299910                       # average overall mshr miss latency ((Cycle/Count))
system.cpu.dcache.demandAvgMshrMissLatency::total 58524.299910                       # average overall mshr miss latency ((Cycle/Count))
system.cpu.dcache.overallAvgMshrMissLatency::cpu.data 58524.299910                       # average overall mshr miss latency ((Cycle/Count))
system.cpu.dcache.overallAvgMshrMissLatency::total 58524.299910                       # average overall mshr miss latency ((Cycle/Count))
system.cpu.dcache.replacements                   5267                       # number of replacements (Count)
system.cpu.dcache.ReadReq.hits::cpu.data         2347                       # number of ReadReq hits (Count)
system.cpu.dcache.ReadReq.hits::total            2347                       # number of ReadReq hits (Count)
system.cpu.dcache.ReadReq.misses::cpu.data         1618                       # number of ReadReq misses (Count)
system.cpu.dcache.ReadReq.misses::total          1618                       # number of ReadReq misses (Count)
system.cpu.dcache.ReadReq.missLatency::cpu.data     96779000                       # number of ReadReq miss ticks (Tick)
system.cpu.dcache.ReadReq.missLatency::total     96779000                       # number of ReadReq miss ticks (Tick)
system.cpu.dcache.ReadReq.accesses::cpu.data         3965                       # number of ReadReq accesses(hits+misses) (Count)
system.cpu.dcache.ReadReq.accesses::total         3965                       # number of ReadReq accesses(hits+misses) (Count)
system.cpu.dcache.ReadReq.missRate::cpu.data     0.408071                       # miss rate for ReadReq accesses (Ratio)
system.cpu.dcache.ReadReq.missRate::total     0.408071                       # miss rate for ReadReq accesses (Ratio)
system.cpu.dcache.ReadReq.avgMissLatency::cpu.data 59813.967862                       # average ReadReq miss latency ((Tick/Count))
system.cpu.dcache.ReadReq.avgMissLatency::total 59813.967862                       # average ReadReq miss latency ((Tick/Count))
system.cpu.dcache.ReadReq.mshrHits::cpu.data          160                       # number of ReadReq MSHR hits (Count)
system.cpu.dcache.ReadReq.mshrHits::total          160                       # number of ReadReq MSHR hits (Count)
system.cpu.dcache.ReadReq.mshrMisses::cpu.data         1458                       # number of ReadReq MSHR misses (Count)
system.cpu.dcache.ReadReq.mshrMisses::total         1458                       # number of ReadReq MSHR misses (Count)
system.cpu.dcache.ReadReq.mshrMissLatency::cpu.data     81406000                       # number of ReadReq MSHR miss ticks (Tick)
system.cpu.dcache.ReadReq.mshrMissLatency::total     81406000                       # number of ReadReq MSHR miss ticks (Tick)
system.cpu.dcache.ReadReq.mshrMissRate::cpu.data     0.367718                       # mshr miss rate for ReadReq accesses (Ratio)
system.cpu.dcache.ReadReq.mshrMissRate::total     0.367718                       # mshr miss rate for ReadReq accesses (Ratio)
system.cpu.dcache.ReadReq.avgMshrMissLatency::cpu.data 55834.019204                       # average ReadReq mshr miss latency ((Tick/Count))
system.cpu.dcache.ReadReq.avgMshrMissLatency::total 55834.019204                       # average ReadReq mshr miss latency ((Tick/Count))
system.cpu.dcache.WriteReq.hits::cpu.data         1656                       # number of WriteReq hits (Count)
system.cpu.dcache.WriteReq.hits::total           1656                       # number of WriteReq hits (Count)
system.cpu.dcache.WriteReq.misses::cpu.data         4077                       # number of WriteReq misses (Count)
system.cpu.dcache.WriteReq.misses::total         4077                       # number of WriteReq misses (Count)
system.cpu.dcache.WriteReq.missLatency::cpu.data    250680000                       # number of WriteReq miss ticks (Tick)
system.cpu.dcache.WriteReq.missLatency::total    250680000                       # number of WriteReq miss ticks (Tick)
system.cpu.dcache.WriteReq.accesses::cpu.data         5733                       # number of WriteReq accesses(hits+misses) (Count)
system.cpu.dcache.WriteReq.accesses::total         5733                       # number of WriteReq accesses(hits+misses) (Count)
system.cpu.dcache.WriteReq.missRate::cpu.data     0.711146                       # miss rate for WriteReq accesses (Ratio)
system.cpu.dcache.WriteReq.missRate::total     0.711146                       # miss rate for WriteReq accesses (Ratio)
system.cpu.dcache.WriteReq.avgMissLatency::cpu.data 61486.387049                       # average WriteReq miss latency ((Tick/Count))
system.cpu.dcache.WriteReq.avgMissLatency::total 61486.387049                       # average WriteReq miss latency ((Tick/Count))
system.cpu.dcache.WriteReq.mshrMisses::cpu.data         4077                       # number of WriteReq MSHR misses (Count)
system.cpu.dcache.WriteReq.mshrMisses::total         4077                       # number of WriteReq MSHR misses (Count)
system.cpu.dcache.WriteReq.mshrMissLatency::cpu.data    242526000                       # number of WriteReq MSHR miss ticks (Tick)
system.cpu.dcache.WriteReq.mshrMissLatency::total    242526000                       # number of WriteReq MSHR miss ticks (Tick)
system.cpu.dcache.WriteReq.mshrMissRate::cpu.data     0.711146                       # mshr miss rate for WriteReq accesses (Ratio)
system.cpu.dcache.WriteReq.mshrMissRate::total     0.711146                       # mshr miss rate for WriteReq accesses (Ratio)
system.cpu.dcache.WriteReq.avgMshrMissLatency::cpu.data 59486.387049                       # average WriteReq mshr miss latency ((Tick/Count))
system.cpu.dcache.WriteReq.avgMshrMissLatency::total 59486.387049                       # average WriteReq mshr miss latency ((Tick/Count))
system.cpu.dcache.power_state.pwrStateResidencyTicks::UNDEFINED    288965000                       # Cumulative time (in ticks) in various power states (Tick)
system.cpu.dcache.tags.tagsInUse           207.060371                       # Average ticks per tags in use ((Tick/Count))
system.cpu.dcache.tags.totalRefs                 9541                       # Total number of references to valid blocks. (Count)
system.cpu.dcache.tags.sampledRefs               5508                       # Sample count of references to valid blocks. (Count)
system.cpu.dcache.tags.avgRefs               1.732208                       # Average number of references to valid blocks. ((Count/Count))
system.cpu.dcache.tags.warmupTick              226000                       # The tick when the warmup percentage was hit. (Tick)
system.cpu.dcache.tags.occupancies::cpu.data   207.060371                       # Average occupied blocks per tick, per requestor ((Count/Tick))
system.cpu.dcache.tags.avgOccs::cpu.data     0.202207                       # Average percentage of cache occupancy ((Ratio/Tick))
system.cpu.dcache.tags.avgOccs::total        0.202207                       # Average percentage of cache occupancy ((Ratio/Tick))
system.cpu.dcache.tags.occupanciesTaskId::1024          241                       # Occupied blocks per task id (Count)
system.cpu.dcache.tags.ageTaskId_1024::0           20                       # Occupied blocks per task id, per block age (Count)
system.cpu.dcache.tags.ageTaskId_1024::2          221                       # Occupied blocks per task id, per block age (Count)
system.cpu.dcache.tags.ratioOccsTaskId::1024     0.235352                       # Ratio of occupied blocks and all blocks, per task id (Ratio)
system.cpu.dcache.tags.tagAccesses              24904                       # Number of tag accesses (Count)
system.cpu.dcache.tags.dataAccesses             24904                       # Number of data accesses (Count)
system.cpu.dcache.tags.power_state.pwrStateResidencyTicks::UNDEFINED    288965000                       # Cumulative time (in ticks) in various power states (Tick)
system.cpu.decode.idleCycles                    21888                       # Number of cycles decode is idle (Cycle)
system.cpu.decode.blockedCycles                223799                       # Number of cycles decode is blocked (Cycle)
system.cpu.decode.runCycles                     12602                       # Number of cycles decode is running (Cycle)
system.cpu.decode.unblockCycles                  9026                       # Number of cycles decode is unblocking (Cycle)
system.cpu.decode.squashCycles                    641                       # Number of cycles decode is squashing (Cycle)
system.cpu.decode.branchResolved                 5394                       # Number of times decode resolved a branch (Count)
system.cpu.decode.branchMispred                   228                       # Number of times decode detected a branch misprediction (Count)
system.cpu.decode.decodedInsts                 163861                       # Number of instructions handled by decode (Count)
system.cpu.decode.squashedInsts                  1159                       # Number of squashed instructions handled by decode (Count)
system.cpu.fetch.icacheStallCycles              26533                       # Number of cycles fetch is stalled on an Icache miss (Cycle)
system.cpu.fetch.insts                         105425                       # Number of instructions fetch has processed (Count)
system.cpu.fetch.branches                        8165                       # Number of branches that fetch encountered (Count)
system.cpu.fetch.predictedBranches               5553                       # Number of branches that fetch has predicted taken (Count)
system.cpu.fetch.cycles                        239384                       # Number of cycles fetch has run and was not squashing or blocked (Cycle)
system.cpu.fetch.squashCycles                    1718                       # Number of cycles fetch has spent squashing (Cycle)
system.cpu.fetch.miscStallCycles                  169                       # Number of cycles fetch has spent waiting on interrupts, or bad addresses, or out of MSHRs (Cycle)
system.cpu.fetch.pendingTrapStallCycles           996                       # Number of stall cycles due to pending traps (Cycle)
system.cpu.fetch.pendingQuiesceStallCycles            4                       # Number of stall cycles due to pending quiesce instructions (Cycle)
system.cpu.fetch.icacheWaitRetryStallCycles           11                       # Number of stall cycles due to full MSHR (Cycle)
system.cpu.fetch.cacheLines                     10687                       # Number of cache lines fetched (Count)
system.cpu.fetch.icacheSquashes                   348                       # Number of outstanding Icache misses that were squashed (Count)
system.cpu.fetch.nisnDist::samples             267956                       # Number of instructions fetched each cycle (Total) (Count)
system.cpu.fetch.nisnDist::mean              0.626984                       # Number of instructions fetched each cycle (Total) (Count)
system.cpu.fetch.nisnDist::stdev             2.013954                       # Number of instructions fetched each cycle (Total) (Count)
system.cpu.fetch.nisnDist::underflows               0      0.00%      0.00% # Number of instructions fetched each cycle (Total) (Count)
system.cpu.fetch.nisnDist::0                   241751     90.22%     90.22% # Number of instructions fetched each cycle (Total) (Count)
system.cpu.fetch.nisnDist::1                      249      0.09%     90.31% # Number of instructions fetched each cycle (Total) (Count)
system.cpu.fetch.nisnDist::2                      201      0.08%     90.39% # Number of instructions fetched each cycle (Total) (Count)
system.cpu.fetch.nisnDist::3                     4455      1.66%     92.05% # Number of instructions fetched each cycle (Total) (Count)
system.cpu.fetch.nisnDist::4                      567      0.21%     92.26% # Number of instructions fetched each cycle (Total) (Count)
system.cpu.fetch.nisnDist::5                     4441      1.66%     93.92% # Number of instructions fetched each cycle (Total) (Count)
system.cpu.fetch.nisnDist::6                      273      0.10%     94.02% # Number of instructions fetched each cycle (Total) (Count)
system.cpu.fetch.nisnDist::7                      275      0.10%     94.12% # Number of instructions fetched each cycle (Total) (Count)
system.cpu.fetch.nisnDist::8                    15744      5.88%    100.00% # Number of instructions fetched each cycle (Total) (Count)
system.cpu.fetch.nisnDist::overflows                0      0.00%    100.00% # Number of instructions fetched each cycle (Total) (Count)
system.cpu.fetch.nisnDist::min_value                0                       # Number of instructions fetched each cycle (Total) (Count)
system.cpu.fetch.nisnDist::max_value                8                       # Number of instructions fetched each cycle (Total) (Count)
system.cpu.fetch.nisnDist::total               267956                       # Number of instructions fetched each cycle (Total) (Count)
system.cpu.fetch.branchRate                  0.028256                       # Number of branch fetches per cycle (Ratio)
system.cpu.fetch.rate                        0.364835                       # Number of inst fetches per cycle ((Count/Cycle))
system.cpu.icache.demandHits::cpu.inst          10064                       # number of demand (read+write) hits (Count)
system.cpu.icache.demandHits::total             10064                       # number of demand (read+write) hits (Count)
system.cpu.icache.overallHits::cpu.inst         10064                       # number of overall hits (Count)
system.cpu.icache.overallHits::total            10064                       # number of overall hits (Count)
system.cpu.icache.demandMisses::cpu.inst          623                       # number of demand (read+write) misses (Count)
system.cpu.icache.demandMisses::total             623                       # number of demand (read+write) misses (Count)
system.cpu.icache.overallMisses::cpu.inst          623                       # number of overall misses (Count)
system.cpu.icache.overallMisses::total            623                       # number of overall misses (Count)
system.cpu.icache.demandMissLatency::cpu.inst     63697000                       # number of demand (read+write) miss ticks (Tick)
system.cpu.icache.demandMissLatency::total     63697000                       # number of demand (read+write) miss ticks (Tick)
system.cpu.icache.overallMissLatency::cpu.inst     63697000                       # number of overall miss ticks (Tick)
system.cpu.icache.overallMissLatency::total     63697000                       # number of overall miss ticks (Tick)
system.cpu.icache.demandAccesses::cpu.inst        10687                       # number of demand (read+write) accesses (Count)
system.cpu.icache.demandAccesses::total         10687                       # number of demand (read+write) accesses (Count)
system.cpu.icache.overallAccesses::cpu.inst        10687                       # number of overall (read+write) accesses (Count)
system.cpu.icache.overallAccesses::total        10687                       # number of overall (read+write) accesses (Count)
system.cpu.icache.demandMissRate::cpu.inst     0.058295                       # miss rate for demand accesses (Ratio)
system.cpu.icache.demandMissRate::total      0.058295                       # miss rate for demand accesses (Ratio)
system.cpu.icache.overallMissRate::cpu.inst     0.058295                       # miss rate for overall accesses (Ratio)
system.cpu.icache.overallMissRate::total     0.058295                       # miss rate for overall accesses (Ratio)
system.cpu.icache.demandAvgMissLatency::cpu.inst 102242.375602                       # average overall miss latency ((Cycle/Count))
system.cpu.icache.demandAvgMissLatency::total 102242.375602                       # average overall miss latency ((Cycle/Count))
system.cpu.icache.overallAvgMissLatency::cpu.inst 102242.375602                       # average overall miss latency ((Cycle/Count))
system.cpu.icache.overallAvgMissLatency::total 102242.375602                       # average overall miss latency ((Cycle/Count))
system.cpu.icache.blockedCycles::no_mshrs           74                       # number of cycles access was blocked (Cycle)
system.cpu.icache.blockedCycles::no_targets            0                       # number of cycles access was blocked (Cycle)
system.cpu.icache.blockedCauses::no_mshrs            2                       # number of times access was blocked (Count)
system.cpu.icache.blockedCauses::no_targets            0                       # number of times access was blocked (Count)
system.cpu.icache.avgBlocked::no_mshrs             37                       # average number of cycles each access was blocked ((Cycle/Count))
system.cpu.icache.avgBlocked::no_targets          nan                       # average number of cycles each access was blocked ((Cycle/Count))
system.cpu.icache.demandMshrHits::cpu.inst          141                       # number of demand (read+write) MSHR hits (Count)
system.cpu.icache.demandMshrHits::total           141                       # number of demand (read+write) MSHR hits (Count)
system.cpu.icache.overallMshrHits::cpu.inst          141                       # number of overall MSHR hits (Count)
system.cpu.icache.overallMshrHits::total          141                       # number of overall MSHR hits (Count)
system.cpu.icache.demandMshrMisses::cpu.inst          482                       # number of demand (read+write) MSHR misses (Count)
system.cpu.icache.demandMshrMisses::total          482                       # number of demand (read+write) MSHR misses (Count)
system.cpu.icache.overallMshrMisses::cpu.inst          482                       # number of overall MSHR misses (Count)
system.cpu.icache.overallMshrMisses::total          482                       # number of overall MSHR misses (Count)
system.cpu.icache.demandMshrMissLatency::cpu.inst     51285000                       # number of demand (read+write) MSHR miss ticks (Tick)
system.cpu.icache.demandMshrMissLatency::total     51285000                       # number of demand (read+write) MSHR miss ticks (Tick)
system.cpu.icache.overallMshrMissLatency::cpu.inst     51285000                       # number of overall MSHR miss ticks (Tick)
system.cpu.icache.overallMshrMissLatency::total     51285000                       # number of overall MSHR miss ticks (Tick)
system.cpu.icache.demandMshrMissRate::cpu.inst     0.045102                       # mshr miss ratio for demand accesses (Ratio)
system.cpu.icache.demandMshrMissRate::total     0.045102                       # mshr miss ratio for demand accesses (Ratio)
system.cpu.icache.overallMshrMissRate::cpu.inst     0.045102                       # mshr miss ratio for overall accesses (Ratio)
system.cpu.icache.overallMshrMissRate::total     0.045102                       # mshr miss ratio for overall accesses (Ratio)
system.cpu.icache.demandAvgMshrMissLatency::cpu.inst 106400.414938                       # average overall mshr miss latency ((Cycle/Count))
system.cpu.icache.demandAvgMshrMissLatency::total 106400.414938                       # average overall mshr miss latency ((Cycle/Count))
system.cpu.icache.overallAvgMshrMissLatency::cpu.inst 106400.414938                       # average overall mshr miss latency ((Cycle/Count))
system.cpu.icache.overallAvgMshrMissLatency::total 106400.414938                       # average overall mshr miss latency ((Cycle/Count))
system.cpu.icache.replacements                    236                       # number of replacements (Count)
system.cpu.icache.ReadReq.hits::cpu.inst        10064                       # number of ReadReq hits (Count)
system.cpu.icache.ReadReq.hits::total           10064                       # number of ReadReq hits (Count)
system.cpu.icache.ReadReq.misses::cpu.inst          623                       # number of ReadReq misses (Count)
system.cpu.icache.ReadReq.misses::total           623                       # number of ReadReq misses (Count)
system.cpu.icache.ReadReq.missLatency::cpu.inst     63697000                       # number of ReadReq miss ticks (Tick)
system.cpu.icache.ReadReq.missLatency::total     63697000                       # number of ReadReq miss ticks (Tick)
system.cpu.icache.ReadReq.accesses::cpu.inst        10687                       # number of ReadReq accesses(hits+misses) (Count)
system.cpu.icache.ReadReq.accesses::total        10687                       # number of ReadReq accesses(hits+misses) (Count)
system.cpu.icache.ReadReq.missRate::cpu.inst     0.058295                       # miss rate for ReadReq accesses (Ratio)
system.cpu.icache.ReadReq.missRate::total     0.058295                       # miss rate for ReadReq accesses (Ratio)
system.cpu.icache.ReadReq.avgMissLatency::cpu.inst 102242.375602                       # average ReadReq miss latency ((Tick/Count))
system.cpu.icache.ReadReq.avgMissLatency::total 102242.375602                       # average ReadReq miss latency ((Tick/Count))
system.cpu.icache.ReadReq.mshrHits::cpu.inst          141                       # number of ReadReq MSHR hits (Count)
system.cpu.icache.ReadReq.mshrHits::total          141                       # number of ReadReq MSHR hits (Count)
system.cpu.icache.ReadReq.mshrMisses::cpu.inst          482                       # number of ReadReq MSHR misses (Count)
system.cpu.icache.ReadReq.mshrMisses::total          482                       # number of ReadReq MSHR misses (Count)
system.cpu.icache.ReadReq.mshrMissLatency::cpu.inst     51285000                       # number of ReadReq MSHR miss ticks (Tick)
system.cpu.icache.ReadReq.mshrMissLatency::total     51285000                       # number of ReadReq MSHR miss ticks (Tick)
system.cpu.icache.ReadReq.mshrMissRate::cpu.inst     0.045102                       # mshr miss rate for ReadReq accesses (Ratio)
system.cpu.icache.ReadReq.mshrMissRate::total     0.045102                       # mshr miss rate for ReadReq accesses (Ratio)
system.cpu.icache.ReadReq.avgMshrMissLatency::cpu.inst 106400.414938                       # average ReadReq mshr miss latency ((Tick/Count))
system.cpu.icache.ReadReq.avgMshrMissLatency::total 106400.414938                       # average ReadReq mshr miss latency ((Tick/Count))
system.cpu.icache.power_state.pwrStateResidencyTicks::UNDEFINED    288965000                       # Cumulative time (in ticks) in various power states (Tick)
system.cpu.icache.tags.tagsInUse           227.161445                       # Average ticks per tags in use ((Tick/Count))
system.cpu.icache.tags.totalRefs                10546                       # Total number of references to valid blocks. (Count)
system.cpu.icache.tags.sampledRefs                482                       # Sample count of references to valid blocks. (Count)
system.cpu.icache.tags.avgRefs              21.879668                       # Average number of references to valid blocks. ((Count/Count))
system.cpu.icache.tags.warmupTick              109000                       # The tick when the warmup percentage was hit. (Tick)
system.cpu.icache.tags.occupancies::cpu.inst   227.161445                       # Average occupied blocks per tick, per requestor ((Count/Tick))
system.cpu.icache.tags.avgOccs::cpu.inst     0.887349                       # Average percentage of cache occupancy ((Ratio/Tick))
system.cpu.icache.tags.avgOccs::total        0.887349                       # Average percentage of cache occupancy ((Ratio/Tick))
system.cpu.icache.tags.occupanciesTaskId::1024          246                       # Occupied blocks per task id (Count)
system.cpu.icache.tags.ageTaskId_1024::0           39                       # Occupied blocks per task id, per block age (Count)
system.cpu.icache.tags.ageTaskId_1024::2          207                       # Occupied blocks per task id, per block age (Count)
system.cpu.icache.tags.ratioOccsTaskId::1024     0.960938                       # Ratio of occupied blocks and all blocks, per task id (Ratio)
system.cpu.icache.tags.tagAccesses              21856                       # Number of tag accesses (Count)
system.cpu.icache.tags.dataAccesses             21856                       # Number of data accesses (Count)
system.cpu.icache.tags.power_state.pwrStateResidencyTicks::UNDEFINED    288965000                       # Cumulative time (in ticks) in various power states (Tick)
system.cpu.interrupts.clk_domain.clock          16000                       # Clock period in ticks (Tick)
system.cpu.lsq0.forwLoads                        2779                       # Number of loads that had data forwarded from stores (Count)
system.cpu.lsq0.squashedLoads                    1581                       # Number of loads squashed (Count)
system.cpu.lsq0.ignoredResponses                    2                       # Number of memory responses ignored because the instruction is squashed (Count)
system.cpu.lsq0.memOrderViolation                  10                       # Number of memory ordering violations (Count)
system.cpu.lsq0.squashedStores                    968                       # Number of stores squashed (Count)
system.cpu.lsq0.rescheduledLoads                    1                       # Number of loads that were rescheduled (Count)
system.cpu.lsq0.blockedByCache                      9                       # Number of times an access to memory failed due to the cache being blocked (Count)
system.cpu.lsq0.loadToUse::samples               5654                       # Distribution of cycle latency between the first time a load is issued and its completion (Unspecified)
system.cpu.lsq0.loadToUse::mean             17.424655                       # Distribution of cycle latency between the first time a load is issued and its completion (Unspecified)
system.cpu.lsq0.loadToUse::stdev            29.373003                       # Distribution of cycle latency between the first time a load is issued and its completion (Unspecified)
system.cpu.lsq0.loadToUse::0-9                   4146     73.33%     73.33% # Distribution of cycle latency between the first time a load is issued and its completion (Unspecified)
system.cpu.lsq0.loadToUse::10-19                    8      0.14%     73.47% # Distribution of cycle latency between the first time a load is issued and its completion (Unspecified)
system.cpu.lsq0.loadToUse::20-29                  390      6.90%     80.37% # Distribution of cycle latency between the first time a load is issued and its completion (Unspecified)
system.cpu.lsq0.loadToUse::30-39                    9      0.16%     80.53% # Distribution of cycle latency between the first time a load is issued and its completion (Unspecified)
system.cpu.lsq0.loadToUse::40-49                  208      3.68%     84.21% # Distribution of cycle latency between the first time a load is issued and its completion (Unspecified)
system.cpu.lsq0.loadToUse::50-59                  115      2.03%     86.24% # Distribution of cycle latency between the first time a load is issued and its completion (Unspecified)
system.cpu.lsq0.loadToUse::60-69                  565      9.99%     96.23% # Distribution of cycle latency between the first time a load is issued and its completion (Unspecified)
system.cpu.lsq0.loadToUse::70-79                   78      1.38%     97.61% # Distribution of cycle latency between the first time a load is issued and its completion (Unspecified)
system.cpu.lsq0.loadToUse::80-89                    5      0.09%     97.70% # Distribution of cycle latency between the first time a load is issued and its completion (Unspecified)
system.cpu.lsq0.loadToUse::90-99                   18      0.32%     98.02% # Distribution of cycle latency between the first time a load is issued and its completion (Unspecified)
system.cpu.lsq0.loadToUse::100-109                 24      0.42%     98.44% # Distribution of cycle latency between the first time a load is issued and its completion (Unspecified)
system.cpu.lsq0.loadToUse::110-119                 19      0.34%     98.78% # Distribution of cycle latency between the first time a load is issued and its completion (Unspecified)
system.cpu.lsq0.loadToUse::120-129                 43      0.76%     99.54% # Distribution of cycle latency between the first time a load is issued and its completion (Unspecified)
system.cpu.lsq0.loadToUse::130-139                  5      0.09%     99.63% # Distribution of cycle latency between the first time a load is issued and its completion (Unspecified)
system.cpu.lsq0.loadToUse::160-169                  4      0.07%     99.70% # Distribution of cycle latency between the first time a load is issued and its completion (Unspecified)
system.cpu.lsq0.loadToUse::170-179                 10      0.18%     99.88% # Distribution of cycle latency between the first time a load is issued and its completion (Unspecified)
system.cpu.lsq0.loadToUse::200-209                  4      0.07%     99.95% # Distribution of cycle latency between the first time a load is issued and its completion (Unspecified)
system.cpu.lsq0.loadToUse::210-219                  1      0.02%     99.96% # Distribution of cycle latency between the first time a load is issued and its completion (Unspecified)
system.cpu.lsq0.loadToUse::overflows                2      0.04%    100.00% # Distribution of cycle latency between the first time a load is issued and its completion (Unspecified)
system.cpu.lsq0.loadToUse::min_value                2                       # Distribution of cycle latency between the first time a load is issued and its completion (Unspecified)
system.cpu.lsq0.loadToUse::max_value              427                       # Distribution of cycle latency between the first time a load is issued and its completion (Unspecified)
system.cpu.lsq0.loadToUse::total                 5654                       # Distribution of cycle latency between the first time a load is issued and its completion (Unspecified)
system.cpu.mmu.dtb.rdAccesses                    6811                       # TLB accesses on read requests (Count)
system.cpu.mmu.dtb.wrAccesses                    6271                       # TLB accesses on write requests (Count)
system.cpu.mmu.dtb.rdMisses                        90                       # TLB misses on read requests (Count)
system.cpu.mmu.dtb.wrMisses                        40                       # TLB misses on write requests (Count)
system.cpu.mmu.dtb.walker.power_state.pwrStateResidencyTicks::UNDEFINED    288965000                       # Cumulative time (in ticks) in various power states (Tick)
system.cpu.mmu.itb.rdAccesses                       0                       # TLB accesses on read requests (Count)
system.cpu.mmu.itb.wrAccesses                   10859                       # TLB accesses on write requests (Count)
system.cpu.mmu.itb.rdMisses                         0                       # TLB misses on read requests (Count)
system.cpu.mmu.itb.wrMisses                       214                       # TLB misses on write requests (Count)
system.cpu.mmu.itb.walker.power_state.pwrStateResidencyTicks::UNDEFINED    288965000                       # Cumulative time (in ticks) in various power states (Tick)
system.cpu.power_state.pwrStateResidencyTicks::ON    288965000                       # Cumulative time (in ticks) in various power states (Tick)
system.cpu.rename.squashCycles                    641                       # Number of cycles rename is squashing (Cycle)
system.cpu.rename.idleCycles                    26284                       # Number of cycles rename is idle (Cycle)
system.cpu.rename.blockCycles                   14818                       # Number of cycles rename is blocking (Cycle)
system.cpu.rename.serializeStallCycles            158                       # count of cycles rename stalled for serializing inst (Cycle)
system.cpu.rename.runCycles                     17177                       # Number of cycles rename is running (Cycle)
system.cpu.rename.unblockCycles                208878                       # Number of cycles rename is unblocking (Cycle)
system.cpu.rename.renamedInsts                 162592                       # Number of instructions processed by rename (Count)
system.cpu.rename.ROBFullEvents                    17                       # Number of times rename has blocked due to ROB full (Count)
system.cpu.rename.IQFullEvents                   4407                       # Number of times rename has blocked due to IQ full (Count)
[...]
system.mem_ctrl.dram.numReads::cpu.data          3618                       # Number of read requests responded to by this memory (Count)
system.mem_ctrl.dram.numReads::total             4100                       # Number of read requests responded to by this memory (Count)
system.mem_ctrl.dram.numWrites::writebacks         2721                       # Number of write requests responded to by this memory (Count)
system.mem_ctrl.dram.numWrites::total            2721                       # Number of write requests responded to by this memory (Count)
system.mem_ctrl.dram.bwRead::cpu.inst       106753413                       # Total read bandwidth from this memory ((Byte/Second))
system.mem_ctrl.dram.bwRead::cpu.data       801315038                       # Total read bandwidth from this memory ((Byte/Second))
system.mem_ctrl.dram.bwRead::total          908068451                       # Total read bandwidth from this memory ((Byte/Second))
system.mem_ctrl.dram.bwInstRead::cpu.inst    106753413                       # Instruction read bandwidth from this memory ((Byte/Second))
system.mem_ctrl.dram.bwInstRead::total      106753413                       # Instruction read bandwidth from this memory ((Byte/Second))
system.mem_ctrl.dram.bwWrite::writebacks    602647379                       # Write bandwidth from this memory ((Byte/Second))
system.mem_ctrl.dram.bwWrite::total         602647379                       # Write bandwidth from this memory ((Byte/Second))
system.mem_ctrl.dram.bwTotal::writebacks    602647379                       # Total bandwidth to/from this memory ((Byte/Second))
system.mem_ctrl.dram.bwTotal::cpu.inst      106753413                       # Total bandwidth to/from this memory ((Byte/Second))
system.mem_ctrl.dram.bwTotal::cpu.data      801315038                       # Total bandwidth to/from this memory ((Byte/Second))
system.mem_ctrl.dram.bwTotal::total        1510715831                       # Total bandwidth to/from this memory ((Byte/Second))
system.mem_ctrl.dram.readBursts                   766                       # Number of DRAM read bursts (Count)
system.mem_ctrl.dram.writeBursts                   16                       # Number of DRAM write bursts (Count)
system.mem_ctrl.dram.perBankRdBursts::0            35                       # Per bank write bursts (Count)
system.mem_ctrl.dram.perBankRdBursts::1            71                       # Per bank write bursts (Count)
system.mem_ctrl.dram.perBankRdBursts::2           114                       # Per bank write bursts (Count)
system.mem_ctrl.dram.perBankRdBursts::3           100                       # Per bank write bursts (Count)
system.mem_ctrl.dram.perBankRdBursts::4           134                       # Per bank write bursts (Count)
system.mem_ctrl.dram.perBankRdBursts::5            33                       # Per bank write bursts (Count)
system.mem_ctrl.dram.perBankRdBursts::6            41                       # Per bank write bursts (Count)
system.mem_ctrl.dram.perBankRdBursts::7             6                       # Per bank write bursts (Count)
system.mem_ctrl.dram.perBankRdBursts::8            10                       # Per bank write bursts (Count)
system.mem_ctrl.dram.perBankRdBursts::9            81                       # Per bank write bursts (Count)
system.mem_ctrl.dram.perBankRdBursts::10           33                       # Per bank write bursts (Count)
system.mem_ctrl.dram.perBankRdBursts::11           22                       # Per bank write bursts (Count)
system.mem_ctrl.dram.perBankRdBursts::12           12                       # Per bank write bursts (Count)
system.mem_ctrl.dram.perBankRdBursts::13            9                       # Per bank write bursts (Count)
system.mem_ctrl.dram.perBankRdBursts::14           16                       # Per bank write bursts (Count)
system.mem_ctrl.dram.perBankRdBursts::15           49                       # Per bank write bursts (Count)
system.mem_ctrl.dram.perBankWrBursts::0             0                       # Per bank write bursts (Count)
system.mem_ctrl.dram.perBankWrBursts::1             0                       # Per bank write bursts (Count)
system.mem_ctrl.dram.perBankWrBursts::2             0                       # Per bank write bursts (Count)
system.mem_ctrl.dram.perBankWrBursts::3             0                       # Per bank write bursts (Count)
system.mem_ctrl.dram.perBankWrBursts::4            16                       # Per bank write bursts (Count)
system.mem_ctrl.dram.perBankWrBursts::5             0                       # Per bank write bursts (Count)
system.mem_ctrl.dram.perBankWrBursts::6             0                       # Per bank write bursts (Count)
system.mem_ctrl.dram.perBankWrBursts::7             0                       # Per bank write bursts (Count)
system.mem_ctrl.dram.perBankWrBursts::8             0                       # Per bank write bursts (Count)
system.mem_ctrl.dram.perBankWrBursts::9             0                       # Per bank write bursts (Count)
system.mem_ctrl.dram.perBankWrBursts::10            0                       # Per bank write bursts (Count)
system.mem_ctrl.dram.perBankWrBursts::11            0                       # Per bank write bursts (Count)
system.mem_ctrl.dram.perBankWrBursts::12            0                       # Per bank write bursts (Count)
system.mem_ctrl.dram.perBankWrBursts::13            0                       # Per bank write bursts (Count)
system.mem_ctrl.dram.perBankWrBursts::14            0                       # Per bank write bursts (Count)
system.mem_ctrl.dram.perBankWrBursts::15            0                       # Per bank write bursts (Count)
system.mem_ctrl.dram.totQLat                 11465013                       # Total ticks spent queuing (Tick)
system.mem_ctrl.dram.totBusLat                3830000                       # Total ticks spent in databus transfers (Tick)
system.mem_ctrl.dram.totMemAccLat            25827513                       # Total ticks spent from burst creation until serviced by the DRAM (Tick)
system.mem_ctrl.dram.avgQLat                 14967.38                       # Average queueing delay per DRAM burst ((Tick/Count))
system.mem_ctrl.dram.avgBusLat                5000.00                       # Average bus latency per DRAM burst ((Tick/Count))
system.mem_ctrl.dram.avgMemAccLat            33717.38                       # Average memory access latency per DRAM burst ((Tick/Count))
system.mem_ctrl.dram.readRowHits                  519                       # Number of row buffer hits during reads (Count)
system.mem_ctrl.dram.writeRowHits                   1                       # Number of row buffer hits during writes (Count)
system.mem_ctrl.dram.readRowHitRate             67.75                       # Row buffer hit rate for reads (Ratio)
system.mem_ctrl.dram.writeRowHitRate             6.25                       # Row buffer hit rate for writes (Ratio)
system.mem_ctrl.dram.bytesPerActivate::samples          260                       # Bytes accessed per row activation (Byte)
system.mem_ctrl.dram.bytesPerActivate::mean   190.276923                       # Bytes accessed per row activation (Byte)
system.mem_ctrl.dram.bytesPerActivate::gmean   123.142111                       # Bytes accessed per row activation (Byte)
system.mem_ctrl.dram.bytesPerActivate::stdev   228.683491                       # Bytes accessed per row activation (Byte)
system.mem_ctrl.dram.bytesPerActivate::0-127          136     52.31%     52.31% # Bytes accessed per row activation (Byte)
system.mem_ctrl.dram.bytesPerActivate::128-255           67     25.77%     78.08% # Bytes accessed per row activation (Byte)
system.mem_ctrl.dram.bytesPerActivate::256-383           21      8.08%     86.15% # Bytes accessed per row activation (Byte)
system.mem_ctrl.dram.bytesPerActivate::384-511           10      3.85%     90.00% # Bytes accessed per row activation (Byte)
system.mem_ctrl.dram.bytesPerActivate::512-639            7      2.69%     92.69% # Bytes accessed per row activation (Byte)
system.mem_ctrl.dram.bytesPerActivate::640-767            2      0.77%     93.46% # Bytes accessed per row activation (Byte)
system.mem_ctrl.dram.bytesPerActivate::768-895            8      3.08%     96.54% # Bytes accessed per row activation (Byte)
system.mem_ctrl.dram.bytesPerActivate::896-1023            1      0.38%     96.92% # Bytes accessed per row activation (Byte)
system.mem_ctrl.dram.bytesPerActivate::1024-1151            8      3.08%    100.00% # Bytes accessed per row activation (Byte)
system.mem_ctrl.dram.bytesPerActivate::total          260                       # Bytes accessed per row activation (Byte)
system.mem_ctrl.dram.bytesRead                  49024                       # Total number of bytes read from DRAM (Byte)
system.mem_ctrl.dram.bytesWritten                1024                       # Total number of bytes written to DRAM (Byte)
system.mem_ctrl.dram.avgRdBW               169.653764                       # Average DRAM read bandwidth in MiBytes/s ((Byte/Second))
system.mem_ctrl.dram.avgWrBW                 3.543682                       # Average DRAM write bandwidth in MiBytes/s ((Byte/Second))
system.mem_ctrl.dram.peakBW                  12800.00                       # Theoretical peak bandwidth in MiByte/s ((Byte/Second))
system.mem_ctrl.dram.busUtil                     1.35                       # Data bus utilization in percentage (Ratio)
system.mem_ctrl.dram.busUtilRead                 1.33                       # Data bus utilization in percentage for reads (Ratio)
system.mem_ctrl.dram.busUtilWrite                0.03                       # Data bus utilization in percentage for writes (Ratio)
system.mem_ctrl.dram.pageHitRate                66.50                       # Row buffer hit rate, read and write combined (Ratio)
system.mem_ctrl.dram.power_state.pwrStateResidencyTicks::UNDEFINED    288965000                       # Cumulative time (in ticks) in various power states (Tick)
system.mem_ctrl.dram.rank0.actEnergy          1520820                       # Energy for activate commands per rank (pJ) (Joule)
system.mem_ctrl.dram.rank0.preEnergy           804540                       # Energy for precharge commands per rank (pJ) (Joule)
system.mem_ctrl.dram.rank0.readEnergy         3812760                       # Energy for read commands per rank (pJ) (Joule)
system.mem_ctrl.dram.rank0.writeEnergy          83520                       # Energy for write commands per rank (pJ) (Joule)
system.mem_ctrl.dram.rank0.refreshEnergy 22741680.000000                       # Energy for refresh commands per rank (pJ) (Joule)
system.mem_ctrl.dram.rank0.actBackEnergy     31941660                       # Energy for active background per rank (pJ) (Joule)
system.mem_ctrl.dram.rank0.preBackEnergy     84064320                       # Energy for precharge background per rank (pJ) (Joule)
system.mem_ctrl.dram.rank0.actPowerDownEnergy            0                       # Energy for active power-down per rank (pJ) (Joule)
system.mem_ctrl.dram.rank0.prePowerDownEnergy            0                       # Energy for precharge power-down per rank (pJ) (Joule)
system.mem_ctrl.dram.rank0.selfRefreshEnergy            0                       # Energy for self refresh per rank (pJ) (Joule)
system.mem_ctrl.dram.rank0.totalEnergy      144969300                       # Total energy per rank (pJ) (Joule)
system.mem_ctrl.dram.rank0.averagePower    501.684633                       # Core power per rank (mW) (Watt)
system.mem_ctrl.dram.rank0.totalIdleTime            0                       # Total Idle time Per DRAM Rank (Tick)
system.mem_ctrl.dram.rank0.pwrStateTime::IDLE    217731754                       # Time in different power states (Tick)
system.mem_ctrl.dram.rank0.pwrStateTime::REF      9620000                       # Time in different power states (Tick)
system.mem_ctrl.dram.rank0.pwrStateTime::SREF            0                       # Time in different power states (Tick)
system.mem_ctrl.dram.rank0.pwrStateTime::PRE_PDN            0                       # Time in different power states (Tick)
system.mem_ctrl.dram.rank0.pwrStateTime::ACT     61613246                       # Time in different power states (Tick)
system.mem_ctrl.dram.rank0.pwrStateTime::ACT_PDN            0                       # Time in different power states (Tick)
system.mem_ctrl.dram.rank1.actEnergy           349860                       # Energy for activate commands per rank (pJ) (Joule)
system.mem_ctrl.dram.rank1.preEnergy           182160                       # Energy for precharge commands per rank (pJ) (Joule)
system.mem_ctrl.dram.rank1.readEnergy         1656480                       # Energy for read commands per rank (pJ) (Joule)
system.mem_ctrl.dram.rank1.writeEnergy              0                       # Energy for write commands per rank (pJ) (Joule)
system.mem_ctrl.dram.rank1.refreshEnergy 22741680.000000                       # Energy for refresh commands per rank (pJ) (Joule)
system.mem_ctrl.dram.rank1.actBackEnergy     26030190                       # Energy for active background per rank (pJ) (Joule)
system.mem_ctrl.dram.rank1.preBackEnergy     89042400                       # Energy for precharge background per rank (pJ) (Joule)
system.mem_ctrl.dram.rank1.actPowerDownEnergy            0                       # Energy for active power-down per rank (pJ) (Joule)
system.mem_ctrl.dram.rank1.prePowerDownEnergy            0                       # Energy for precharge power-down per rank (pJ) (Joule)
system.mem_ctrl.dram.rank1.selfRefreshEnergy            0                       # Energy for self refresh per rank (pJ) (Joule)
system.mem_ctrl.dram.rank1.totalEnergy      140002770                       # Total energy per rank (pJ) (Joule)
system.mem_ctrl.dram.rank1.averagePower    484.497327                       # Core power per rank (mW) (Watt)
system.mem_ctrl.dram.rank1.totalIdleTime            0                       # Total Idle time Per DRAM Rank (Tick)
system.mem_ctrl.dram.rank1.pwrStateTime::IDLE    231258507                       # Time in different power states (Tick)
system.mem_ctrl.dram.rank1.pwrStateTime::REF      9620000                       # Time in different power states (Tick)
system.mem_ctrl.dram.rank1.pwrStateTime::SREF            0                       # Time in different power states (Tick)
system.mem_ctrl.dram.rank1.pwrStateTime::PRE_PDN            0                       # Time in different power states (Tick)
system.mem_ctrl.dram.rank1.pwrStateTime::ACT     48086493                       # Time in different power states (Tick)
system.mem_ctrl.dram.rank1.pwrStateTime::ACT_PDN            0                       # Time in different power states (Tick)
system.mem_ctrl.power_state.pwrStateResidencyTicks::UNDEFINED    288965000                       # Cumulative time (in ticks) in various power states (Tick)
system.membus.transDist::ReadResp                1254                       # Transaction distribution (Count)
system.membus.transDist::WritebackDirty          2721                       # Transaction distribution (Count)
system.membus.transDist::WritebackClean           804                       # Transaction distribution (Count)
system.membus.transDist::CleanEvict               236                       # Transaction distribution (Count)
system.membus.transDist::UpgradeReq                34                       # Transaction distribution (Count)
system.membus.transDist::ReadExReq               2846                       # Transaction distribution (Count)
system.membus.transDist::ReadExResp              2846                       # Transaction distribution (Count)
system.membus.transDist::ReadCleanReq            1254                       # Transaction distribution (Count)
system.membus.pktCount_system.l2_victimcache.mem_side_port::system.mem_ctrl.port        11995                       # Packet count per connected requestor and responder (Count)
system.membus.pktCount_system.l2_victimcache.mem_side_port::total        11995                       # Packet count per connected requestor and responder (Count)
system.membus.pktCount::total                   11995                       # Packet count per connected requestor and responder (Count)
system.membus.pktSize_system.l2_victimcache.mem_side_port::system.mem_ctrl.port       488000                       # Cumulative packet size per connected requestor and responder (Byte)
system.membus.pktSize_system.l2_victimcache.mem_side_port::total       488000                       # Cumulative packet size per connected requestor and responder (Byte)
system.membus.pktSize::total                   488000                       # Cumulative packet size per connected requestor and responder (Byte)
system.membus.snoops                                0                       # Total snoops (Count)
system.membus.snoopTraffic                          0                       # Total snoop traffic (Byte)
system.membus.snoopFanout::samples               4134                       # Request fanout histogram (Count)
system.membus.snoopFanout::mean                     0                       # Request fanout histogram (Count)
system.membus.snoopFanout::stdev                    0                       # Request fanout histogram (Count)
system.membus.snoopFanout::underflows               0      0.00%      0.00% # Request fanout histogram (Count)
system.membus.snoopFanout::0                     4134    100.00%    100.00% # Request fanout histogram (Count)
system.membus.snoopFanout::1                        0      0.00%    100.00% # Request fanout histogram (Count)
system.membus.snoopFanout::overflows                0      0.00%    100.00% # Request fanout histogram (Count)
system.membus.snoopFanout::min_value                0                       # Request fanout histogram (Count)
system.membus.snoopFanout::max_value                0                       # Request fanout histogram (Count)
system.membus.snoopFanout::total                 4134                       # Request fanout histogram (Count)
system.membus.power_state.pwrStateResidencyTicks::UNDEFINED    288965000                       # Cumulative time (in ticks) in various power states (Tick)
system.membus.reqLayer2.occupancy            29700287                       # Layer occupancy (ticks) (Tick)
system.membus.reqLayer2.utilization               0.1                       # Layer utilization (Ratio)
system.membus.respLayer0.occupancy           20760500                       # Layer occupancy (ticks) (Tick)
system.membus.respLayer0.utilization              0.1                       # Layer utilization (Ratio)
system.membus.snoop_filter.totRequests           7895                       # Total number of requests made to the snoop filter. (Count)
system.membus.snoop_filter.hitSingleRequests         3795                       # Number of requests hitting in the snoop filter with a single holder of the requested data. (Count)
system.membus.snoop_filter.hitMultiRequests            0                       # Number of requests hitting in the snoop filter with multiple (>1) holders of the requested data. (Count)
system.membus.snoop_filter.totSnoops                0                       # Total number of snoops made to the snoop filter. (Count)
system.membus.snoop_filter.hitSingleSnoops            0                       # Number of snoops hitting in the snoop filter with a single holder of the requested data. (Count)
system.membus.snoop_filter.hitMultiSnoops            0                       # Number of snoops hitting in the snoop filter with multiple (>1) holders of the requested data. (Count)
system.workload.inst.arm                            0                       # number of arm instructions executed (Count)
system.workload.inst.quiesce                        0                       # number of quiesce instructions executed (Count)

---------- End Simulation Statistics   ----------
